**************************************************
* Manufacturer:           Würth Elektronik
* Kinds:                  Transformer for Battery Management Systems
* Matchcode:              WE-BMS
* Library Type:           Pspice
* Version:                rev26a
* Created/modified by:    Ella      
* Date and Time:          2026-04-08
* Team:                   eiSos EDA Service  
* Contact:                libraries@we-online.com
**************************************************
* Copyright(C) 2026 Würth Elektronik eiSos GmbH & Co. KG
* All Rights Reserved.
**************************************************
* Disclaimer: While Würth Elektronik eiSos has made every reasonable effort to ensure the accuracy
* of the simulation models provided, Würth Elektronik eiSos does not guarantee the exemption of error on
* the simulation models, nor does Würth Elektronik eiSos guarantee that the simulation model is current.
* Würth Elektronik eiSos reserves the right to make any adjustments at any time without notice.
* Würth Elektronik eiSos expressly disclaims all implied warranties regarding this simulation model.
**************************************************
**$ENCRYPTED_LIB
**$INTERFACE
.subckt 74941300 1 2 3 4 5 6
$CDNENCSTART_ADV2
17f62b1fb318c25603aeb85644ae98a5d179ef807807791f6459efacb9d7ffc37a831b146dc0f06bb1ef275619162e6d8f7ad0dc708bf15ae1a1d5bd0ae623b2
08cd889865a789262e3ad64e69fb170f128412f280b07af7516477a8ff0fcde811715e03ecd40a60337d635939f29daba993bff8560a84974b284ca1d3278fd3
9f6547d8ff96a295f1e6e6ecc27ebd10128412f280b07af7516477a8ff0fcde811715e03ecd40a60337d635939f29daba993bff8560a84974b284ca1d3278fd3
f1b2532c00acb3cf79d01cec36477326128412f280b07af7516477a8ff0fcde811715e03ecd40a60337d635939f29daba993bff8560a84974b284ca1d3278fd3
be2074b04d4c33524e6df1c4e42b5bd7128412f280b07af7516477a8ff0fcde811715e03ecd40a60337d635939f29daba993bff8560a84974b284ca1d3278fd3
b6db1296e9baa3a4ec0517a0e0e05853128412f280b07af7516477a8ff0fcde811715e03ecd40a60337d635939f29daba993bff8560a84974b284ca1d3278fd3
35db761382a2a10513a82d976973b4ee128412f280b07af7516477a8ff0fcde811715e03ecd40a60337d635939f29daba993bff8560a84974b284ca1d3278fd3
ec5ec23c93110f648342b9104a33bb77128412f280b07af7516477a8ff0fcde811715e03ecd40a60337d635939f29daba993bff8560a84974b284ca1d3278fd3
017820828fe31027faa33a7660c48c59128412f280b07af7516477a8ff0fcde811715e03ecd40a60337d635939f29daba993bff8560a84974b284ca1d3278fd3
dcf60e45e1771b199921e2c6aadc41af9cb778a6f1148e0f726eed173ff6118e1c7d7bbd67785f4680063977b01124a5fe8be62ea88b0678c6e88ced0a1ba13c
b6d384be47c469a05523bd227cfbbb5d9cb778a6f1148e0f726eed173ff6118e1c7d7bbd67785f4680063977b01124a5fe8be62ea88b0678c6e88ced0a1ba13c
c93a1f354edcd4b04ed49f1a71e657489cb778a6f1148e0f726eed173ff6118e1c7d7bbd67785f4680063977b01124a5fe8be62ea88b0678c6e88ced0a1ba13c
279e15148573dfe5acc63f98471804f89cb778a6f1148e0f726eed173ff6118e1c7d7bbd67785f4680063977b01124a5fe8be62ea88b0678c6e88ced0a1ba13c

63b7aa7029108033c5b1d8da4645eff0fd73d76bb6aaac4110893c456b17e8dc4f734d900a8d508c0992f5fdf651b3f4f569782d2d19d9bdba5c626527c7870e
e31dd812c833e0d1b04fd655c33e8dcc9cb778a6f1148e0f726eed173ff6118e1c7d7bbd67785f4680063977b01124a5fe8be62ea88b0678c6e88ced0a1ba13c
94aac10f0c895664e64b4a6ff1168c2807a201ece05402cddc4b621447f7b31d090657215a27cce54273bc879a9574f89313973e228f50a7eb0b88b4d73687f7
3a59cece0d3f3988f470cab61db520a1fd73d76bb6aaac4110893c456b17e8dc4f734d900a8d508c0992f5fdf651b3f4f569782d2d19d9bdba5c626527c7870e
a1d2d2b4455909906ce0b718bc0144c59cb778a6f1148e0f726eed173ff6118e1c7d7bbd67785f4680063977b01124a5fe8be62ea88b0678c6e88ced0a1ba13c
8cd5fcbe7a770f771aed29b8eb0873ba07a201ece05402cddc4b621447f7b31d090657215a27cce54273bc879a9574f89313973e228f50a7eb0b88b4d73687f7
91c611233076d1cf710b48590ad7c8e9fd73d76bb6aaac4110893c456b17e8dc4f734d900a8d508c0992f5fdf651b3f4f569782d2d19d9bdba5c626527c7870e
8ecf1adfba1028eefa455985bfe86be09cb778a6f1148e0f726eed173ff6118e1c7d7bbd67785f4680063977b01124a5fe8be62ea88b0678c6e88ced0a1ba13c
3e08c38852e91add41d734686c48a4c607a201ece05402cddc4b621447f7b31d090657215a27cce54273bc879a9574f89313973e228f50a7eb0b88b4d73687f7
1de48f9ddef4bf2c62ff8ad21d1d83b1fd73d76bb6aaac4110893c456b17e8dc4f734d900a8d508c0992f5fdf651b3f4f569782d2d19d9bdba5c626527c7870e
d8c2d63180e804b82e194bb3a9908d819cb778a6f1148e0f726eed173ff6118e1c7d7bbd67785f4680063977b01124a5fe8be62ea88b0678c6e88ced0a1ba13c
176d4856e2c8bd3317a8b13d65ef03f907a201ece05402cddc4b621447f7b31d090657215a27cce54273bc879a9574f89313973e228f50a7eb0b88b4d73687f7
1a75dd0ce67bbb64599f57f303008744fd73d76bb6aaac4110893c456b17e8dc4f734d900a8d508c0992f5fdf651b3f4f569782d2d19d9bdba5c626527c7870e
4d9edf68066291bc022f3ccc6cb040c69cb778a6f1148e0f726eed173ff6118e1c7d7bbd67785f4680063977b01124a5fe8be62ea88b0678c6e88ced0a1ba13c
ce8b83834219b31438ca25277420adee07a201ece05402cddc4b621447f7b31d090657215a27cce54273bc879a9574f89313973e228f50a7eb0b88b4d73687f7
40bbd7871f7ce697b5cf594928c33453fd73d76bb6aaac4110893c456b17e8dc4f734d900a8d508c0992f5fdf651b3f4f569782d2d19d9bdba5c626527c7870e
2a2bc220fd7d06ac7759caba265c78539cb778a6f1148e0f726eed173ff6118e1c7d7bbd67785f4680063977b01124a5fe8be62ea88b0678c6e88ced0a1ba13c
cab9b9b5fbe195f448e97ef87c514c6b07a201ece05402cddc4b621447f7b31d090657215a27cce54273bc879a9574f89313973e228f50a7eb0b88b4d73687f7

8253bd23c733327206884103626a500c9cb778a6f1148e0f726eed173ff6118e1c7d7bbd67785f4680063977b01124a5fe8be62ea88b0678c6e88ced0a1ba13c
f46477d34ddf19d73985b57ac91ad98fe055d219696fc71b527832d6197671a644bced100af993cc18661bfd7d2bbafaf3cca6578438ec20256b4b50d7102f0f
2f3c74a12d39f5af1b62719b72154f569cb778a6f1148e0f726eed173ff6118e1c7d7bbd67785f4680063977b01124a5fe8be62ea88b0678c6e88ced0a1ba13c
20446e96bee271de4c6610d4eb616d4d9cdbaa8256857361031a75bfc3790b5644bced100af993cc18661bfd7d2bbafaf3cca6578438ec20256b4b50d7102f0f
69eee51ad46b65276a5fff08961a78e09cb778a6f1148e0f726eed173ff6118e1c7d7bbd67785f4680063977b01124a5fe8be62ea88b0678c6e88ced0a1ba13c
1fd79d036008f99d17e2af0e61a806b69cb778a6f1148e0f726eed173ff6118e1c7d7bbd67785f4680063977b01124a5fe8be62ea88b0678c6e88ced0a1ba13c
bc557a0e9fa42f96a44e3388b7239b78711e85c2404fd8bf6b66559d590fd43d44bced100af993cc18661bfd7d2bbafaf3cca6578438ec20256b4b50d7102f0f
449c0682f86ccb768d0c19c277fe6218711e85c2404fd8bf6b66559d590fd43d44bced100af993cc18661bfd7d2bbafaf3cca6578438ec20256b4b50d7102f0f
3b383e8330ba24726ed50377a4f6ebd43e27a221d65d3fe6fd626a303967138e38f8c74efae79f663c984af7104a2501e642664be9320aa06c81875966634daa
b934db8e7c625e1b04915a0facaf1ffbcf5eb01a6ed255044606d353ed9bbcd402e97054b445d8599623c89b4fa50b4308a761868d00918095d044d1dd4d76f6
46dc7be92bb6d0a4e7573bb6aa31c50f9cb778a6f1148e0f726eed173ff6118e1c7d7bbd67785f4680063977b01124a5fe8be62ea88b0678c6e88ced0a1ba13c
b3c7261c18b65b7eb9f22de4579b805f9cb778a6f1148e0f726eed173ff6118e1c7d7bbd67785f4680063977b01124a5fe8be62ea88b0678c6e88ced0a1ba13c
ae74118dcb44c21330ac0c3706bfda8e1c3ed3c5e621a0f3f08981814f610da244bced100af993cc18661bfd7d2bbafaf3cca6578438ec20256b4b50d7102f0f
38b729350443aed5784d0510961bed2e1c3ed3c5e621a0f3f08981814f610da244bced100af993cc18661bfd7d2bbafaf3cca6578438ec20256b4b50d7102f0f
e6c6a35c9cd3563d67b832cd88eac2d8b9c48ae541bba49a1c3c0f73fee724f4acb7579a5cb66e5c393c8ab86a1bb40ce642664be9320aa06c81875966634daa
6b0dad72f8d8a341becb7ab92ee8c485b471196b8bab352c5cd8e6cf8950079602e97054b445d8599623c89b4fa50b4308a761868d00918095d044d1dd4d76f6
9e61b3f2b4274f4555d230cd544eac149cb778a6f1148e0f726eed173ff6118e1c7d7bbd67785f4680063977b01124a5fe8be62ea88b0678c6e88ced0a1ba13c
1473a3bef322992d74d720998f65baf29cb778a6f1148e0f726eed173ff6118e1c7d7bbd67785f4680063977b01124a5fe8be62ea88b0678c6e88ced0a1ba13c
c28eff44b251596b8fa50c36ae193ab92e0321ef043961a746d84206fbfdd1a744bced100af993cc18661bfd7d2bbafaf3cca6578438ec20256b4b50d7102f0f
7623445756922d20fcfb03d9a353a4232e0321ef043961a746d84206fbfdd1a744bced100af993cc18661bfd7d2bbafaf3cca6578438ec20256b4b50d7102f0f
1e443245a6c8236c241014d607bab01d727332bed18a0785d32f279741476d0202e97054b445d8599623c89b4fa50b4308a761868d00918095d044d1dd4d76f6
2a65377e7a2ab840026d07b43212d215448693349338b49abf3ed0055e0ad1919cb778a6f1148e0f726eed173ff6118e3019ed91f057c0363203ec7f22ec3221
80445aca13fa31fe0a356178e0f501b29cb778a6f1148e0f726eed173ff6118e1c7d7bbd67785f4680063977b01124a5fe8be62ea88b0678c6e88ced0a1ba13c
b5351517cd32ac07308b7df4c2a289657e51e53117ee47d2175b8b18ea3e49df4f734d900a8d508c0992f5fdf651b3f4f569782d2d19d9bdba5c626527c7870e
105344812e830cf2a51c1251c22a4ef9a37baea1455b7ac20e8ffdffb690132044bced100af993cc18661bfd7d2bbafaf3cca6578438ec20256b4b50d7102f0f
68ca33a542b436b8a49b33f314e3aedddc7b10c2f5632aa181e9543493633d6c4525a95a81fd2d6f2d7a2fb333bf07d32f5ee8509f3f98990ba4fc58f52b80fb
b00e10bd61d285234f65f65360bbba0835bbfec02436b1b20e961ee1cc8fcacf99e2ba53a256f78ee8a51f68510a16df94127c935384b745d5d0e1d054328e9e
0120a6974ad56b3692b8d615b17f6216c852fe287708e1a5f3501c8f7dfa957099e2ba53a256f78ee8a51f68510a16df94127c935384b745d5d0e1d054328e9e
1fd076a6f404f9da2499125d638058bb7e51e53117ee47d2175b8b18ea3e49df4f734d900a8d508c0992f5fdf651b3f4f569782d2d19d9bdba5c626527c7870e
dfeefb8e03a4bbe98adc2ebcc83537ea7e51e53117ee47d2175b8b18ea3e49df4f734d900a8d508c0992f5fdf651b3f4f569782d2d19d9bdba5c626527c7870e
f19b857c9482c12d6f2d77c5007914d41ea48e6f7c97c8327ffe21314815a0524525a95a81fd2d6f2d7a2fb333bf07d32f5ee8509f3f98990ba4fc58f52b80fb
3ee58c0f35bf9ba7096201b6663cf9e71ea48e6f7c97c8327ffe21314815a0524525a95a81fd2d6f2d7a2fb333bf07d32f5ee8509f3f98990ba4fc58f52b80fb
066b42fc9652067f9ddc8ab2627ceff3d4980f2c38053914605e88f258cb42cc12c78842be45cd22618256737cd795aa11c40f983dbc67ac99eb7a6532faa9cd
e17b555eca349d2af805d05a076778bb84fbee4e23e0576e8a35bfd03e329398b66a802365d99f63ed463c1073ccb1341472baa83b348608e21a24612566a270
0e558e58737d43da8a256cda28adc5e97e51e53117ee47d2175b8b18ea3e49df4f734d900a8d508c0992f5fdf651b3f4f569782d2d19d9bdba5c626527c7870e
2d0a9a09f5101711d99859e2541bb9a07e51e53117ee47d2175b8b18ea3e49df4f734d900a8d508c0992f5fdf651b3f4f569782d2d19d9bdba5c626527c7870e
81c3b746eec9f11ea73f67f37ef54f935775dc093466317b690a6f942404e9584525a95a81fd2d6f2d7a2fb333bf07d32f5ee8509f3f98990ba4fc58f52b80fb
88db4626b81ec01c5b73566892eb2d4b5775dc093466317b690a6f942404e9584525a95a81fd2d6f2d7a2fb333bf07d32f5ee8509f3f98990ba4fc58f52b80fb
fe3a9d0e808f6c54a48384fa15a40298af74409e51c0a8ba0e9e42021b67cd27fd47ba286a0c7dd7ecf7248cf023671311c40f983dbc67ac99eb7a6532faa9cd
871fdb5918999617b2c14372b7dc931d0052f5e1372dc8a7c61d671d39a80efffd83f3d7debb75d6605db68dd7ec85a31472baa83b348608e21a24612566a270
f95632a9f5980dab8eb268b88618e7ec7e51e53117ee47d2175b8b18ea3e49df4f734d900a8d508c0992f5fdf651b3f4f569782d2d19d9bdba5c626527c7870e
b30cca0987711e11872c0f9ec4a478750cd2c42b7fccd664570072aabd447f8e4525a95a81fd2d6f2d7a2fb333bf07d32f5ee8509f3f98990ba4fc58f52b80fb
f7b570e5d798bcb7b81e72f4a4ea0f247e51e53117ee47d2175b8b18ea3e49df4f734d900a8d508c0992f5fdf651b3f4f569782d2d19d9bdba5c626527c7870e
af49b59b9cf72e513c1551fe099e2785ae5e030fe36733ce45ef405dfc11a47f4525a95a81fd2d6f2d7a2fb333bf07d32f5ee8509f3f98990ba4fc58f52b80fb
362ed055840c5466a553697925004c977e51e53117ee47d2175b8b18ea3e49df4f734d900a8d508c0992f5fdf651b3f4f569782d2d19d9bdba5c626527c7870e
12c911790b850a6376ecdfb68efd958a7e51e53117ee47d2175b8b18ea3e49df4f734d900a8d508c0992f5fdf651b3f4f569782d2d19d9bdba5c626527c7870e
786658ee288c9f653d0af7e6f404c875f8f6897b3544a2dc4dd4558be9ae7a024525a95a81fd2d6f2d7a2fb333bf07d32f5ee8509f3f98990ba4fc58f52b80fb
af99bce5c943eb336a9b231a11394f04f8f6897b3544a2dc4dd4558be9ae7a024525a95a81fd2d6f2d7a2fb333bf07d32f5ee8509f3f98990ba4fc58f52b80fb
c9a544f26270af4bf03972a27f75f5de8b282d7f730197abb894e8ddf631931680acbddcf7930dca4bb0cdde19a950b8ff00f0f287178503d41d1dca4060484c
83eac7cbe6d5605e66ad4d3ed47cdb1aad2e17cb027765941fe41573463f1f3942e68537bb9d2c4bea9b31cd81ce255411c40f983dbc67ac99eb7a6532faa9cd
b813e0acec8635571b7b99eddd9778177e51e53117ee47d2175b8b18ea3e49df4f734d900a8d508c0992f5fdf651b3f4f569782d2d19d9bdba5c626527c7870e
48a0a7173d5b6c5ddcde144919151f667e51e53117ee47d2175b8b18ea3e49df4f734d900a8d508c0992f5fdf651b3f4f569782d2d19d9bdba5c626527c7870e
0d1bd68f6b05ce1ea6833a7738c02cb8827320ef1fe6437b0acf8c4ed2735a504525a95a81fd2d6f2d7a2fb333bf07d32f5ee8509f3f98990ba4fc58f52b80fb
ae051b6f046a75fd97c472bf3d0d9ded827320ef1fe6437b0acf8c4ed2735a504525a95a81fd2d6f2d7a2fb333bf07d32f5ee8509f3f98990ba4fc58f52b80fb
30b9c3a29b5629303c7de51caa9e6fe7be1d3b0ee3905d64f0631596b5229fe5e873ca43aa602a1b5124221c33de0fccff00f0f287178503d41d1dca4060484c
acdd755d3e55d8bda1f105c9a5ee35fea84370e08dfacc9694d728754aabf6102ea716738120a1dd80eec3241f06290e11c40f983dbc67ac99eb7a6532faa9cd
45a2659fa360cb039d05602dbb241f8d7e51e53117ee47d2175b8b18ea3e49df4f734d900a8d508c0992f5fdf651b3f4f569782d2d19d9bdba5c626527c7870e
2ccaf26d5128bbbffc5fa33b7c0152e57e51e53117ee47d2175b8b18ea3e49df4f734d900a8d508c0992f5fdf651b3f4f569782d2d19d9bdba5c626527c7870e
5bda391df875110549a36538ce8d423cb9c868d370c7ce2b4676ee8c49d59ad04525a95a81fd2d6f2d7a2fb333bf07d32f5ee8509f3f98990ba4fc58f52b80fb
27c96dd9c5e3df57980b4b388a3f104db9c868d370c7ce2b4676ee8c49d59ad04525a95a81fd2d6f2d7a2fb333bf07d32f5ee8509f3f98990ba4fc58f52b80fb
701d43e51efc4ad33d839ea4457ed09e1d3244068fc48528cea76e8eabc0ae5342797e5ba78547f8df52858486c2c2a4ff00f0f287178503d41d1dca4060484c
9c942971b9a780af595865531fb361e72dde1997ef2dcde609ae97fc8e2cf5ad05ea3b55fb6c011581289ccd628bd2fe11c40f983dbc67ac99eb7a6532faa9cd
e9236d7aaa08d82215611573ed3d27aa7e51e53117ee47d2175b8b18ea3e49df4f734d900a8d508c0992f5fdf651b3f4f569782d2d19d9bdba5c626527c7870e
d0fe48e10a143650ba1bbbbdaeb6ae87d3b08336260e0e018a216a81de715d9d4525a95a81fd2d6f2d7a2fb333bf07d32f5ee8509f3f98990ba4fc58f52b80fb
789ec1631c0cfd508a9c2b03dd15af027e51e53117ee47d2175b8b18ea3e49df4f734d900a8d508c0992f5fdf651b3f4f569782d2d19d9bdba5c626527c7870e
b829c76304e86fc9edd35d0a84486ef87e51e53117ee47d2175b8b18ea3e49df4f734d900a8d508c0992f5fdf651b3f4f569782d2d19d9bdba5c626527c7870e
9849ba52c07cc8c15dedd8b000ed1fb6a8b401db2642f88911e38ce93bda024a4525a95a81fd2d6f2d7a2fb333bf07d32f5ee8509f3f98990ba4fc58f52b80fb
038faaff967241adc09b027f43620873a8b401db2642f88911e38ce93bda024a4525a95a81fd2d6f2d7a2fb333bf07d32f5ee8509f3f98990ba4fc58f52b80fb
abbd96da2272e35b7452a2b7a6e9fe8fd2594c1681cbd77bd9eacde170eae17bd48287d3053d36f91df8f903b62af3e7ff00f0f287178503d41d1dca4060484c
3794cd5162289e240eec0a35865a57593a84f1f0de038ef1fa412ce82d6c981d975dde0dc6e1db54f0c399bbd792a94a11c40f983dbc67ac99eb7a6532faa9cd
300f58c2e3f120091c0696f54ff4b5c17e51e53117ee47d2175b8b18ea3e49df4f734d900a8d508c0992f5fdf651b3f4f569782d2d19d9bdba5c626527c7870e
d955fffe65b06b545a23ce4dc5cdae194c48bbe28bd0fcf9dade07a36743583c4525a95a81fd2d6f2d7a2fb333bf07d32f5ee8509f3f98990ba4fc58f52b80fb
7c1e6a8626c400b5c2caca6216a36c8e7e51e53117ee47d2175b8b18ea3e49df4f734d900a8d508c0992f5fdf651b3f4f569782d2d19d9bdba5c626527c7870e
ffcb55f9fa3102d9c84938ca812e8cfa8765cfe2b05888d5b037178cc2c695b14525a95a81fd2d6f2d7a2fb333bf07d32f5ee8509f3f98990ba4fc58f52b80fb
e7ece41d6354cddd15b6f2d9b40c70707e51e53117ee47d2175b8b18ea3e49df4f734d900a8d508c0992f5fdf651b3f4f569782d2d19d9bdba5c626527c7870e
3ac88a54c500c5a108067852b38a262380bd47ca05312e3bd213a72e42eb77ca4525a95a81fd2d6f2d7a2fb333bf07d32f5ee8509f3f98990ba4fc58f52b80fb
3a3dff3389f52e3204438b4728076dba7e51e53117ee47d2175b8b18ea3e49df4f734d900a8d508c0992f5fdf651b3f4f569782d2d19d9bdba5c626527c7870e
28ecf68288e613198a45e7a2e6bc41811d27e32b3a0690bf958d936810d912244525a95a81fd2d6f2d7a2fb333bf07d32f5ee8509f3f98990ba4fc58f52b80fb
53190d010dd60d349b57500e12dc0b9e7e51e53117ee47d2175b8b18ea3e49df4f734d900a8d508c0992f5fdf651b3f4f569782d2d19d9bdba5c626527c7870e
f28c4e07210b622edea53947e5ab7c00b39dc07654932bb24042e02ed2a3c9254525a95a81fd2d6f2d7a2fb333bf07d32f5ee8509f3f98990ba4fc58f52b80fb
3388599bd8f82aa14ffad9b6bbdecdcf7e51e53117ee47d2175b8b18ea3e49df4f734d900a8d508c0992f5fdf651b3f4f569782d2d19d9bdba5c626527c7870e
2fd46f96105e8547c69ee195249e6e90dc8343657ccb26b6c2ccf11e2e19e4f74525a95a81fd2d6f2d7a2fb333bf07d32f5ee8509f3f98990ba4fc58f52b80fb
d5b9d9782bbd81f6d90815d8de01311f7e51e53117ee47d2175b8b18ea3e49df4f734d900a8d508c0992f5fdf651b3f4f569782d2d19d9bdba5c626527c7870e
f616c236f49d8396bb2e78159e8b598b7e51e53117ee47d2175b8b18ea3e49df4f734d900a8d508c0992f5fdf651b3f4f569782d2d19d9bdba5c626527c7870e
1576fe628428dfb88b4b81291833ad8f3373b49b1beb5281a1bc8e9b0c148e3a4525a95a81fd2d6f2d7a2fb333bf07d32f5ee8509f3f98990ba4fc58f52b80fb
564487ec64951e7832fc0160d9f9136f3373b49b1beb5281a1bc8e9b0c148e3a4525a95a81fd2d6f2d7a2fb333bf07d32f5ee8509f3f98990ba4fc58f52b80fb
baefe63e66135a9927a7277bafff355525aac7ee7598681f00c9b63d0eba161cfaa16b6be3018ec185dfe9c6dc6b0d3711c40f983dbc67ac99eb7a6532faa9cd
bb6e6e0aa6e1772d639d4acc95037e01e66a031e6e96e31edd1f6fc10cb71e65be4cb62acaa982305a8cad3b2cb1571d1472baa83b348608e21a24612566a270
f3036e1913d94182ec3b8275f05f9b417e51e53117ee47d2175b8b18ea3e49df4f734d900a8d508c0992f5fdf651b3f4f569782d2d19d9bdba5c626527c7870e
1372e41626d6dc9a30b9e5d3990b7ad9add2490004e780e570960b7aa3fab5634525a95a81fd2d6f2d7a2fb333bf07d32f5ee8509f3f98990ba4fc58f52b80fb
f1342b81ea81500ac1dd39fdee8ce9e47e51e53117ee47d2175b8b18ea3e49df4f734d900a8d508c0992f5fdf651b3f4f569782d2d19d9bdba5c626527c7870e
2d086a92cc62ce2d2a3f918360b9812b7e51e53117ee47d2175b8b18ea3e49df4f734d900a8d508c0992f5fdf651b3f4f569782d2d19d9bdba5c626527c7870e
323f5cd714b3c003a9011cc0513d42c08d898aceb9b7ab7e0c8b0d4f0d9355244525a95a81fd2d6f2d7a2fb333bf07d32f5ee8509f3f98990ba4fc58f52b80fb
626bbcd22cd6671584bed2a755807a7c8d898aceb9b7ab7e0c8b0d4f0d9355244525a95a81fd2d6f2d7a2fb333bf07d32f5ee8509f3f98990ba4fc58f52b80fb
edca5514ee73e11d46ead3558d713fe262eef83463a8cf42a4aedbbf75a08c2f6db57d68ca7dc427fd33ebd40908f83dff00f0f287178503d41d1dca4060484c
ad28879190f27413f9d365a1b9fb5fe6c9e80dd75e30e1d215c76c8a27a88c606eec6527c13ecac8972b2b5e954c314611c40f983dbc67ac99eb7a6532faa9cd
c49cd0b5f83d52a79382dd566f9ef29a7e51e53117ee47d2175b8b18ea3e49df4f734d900a8d508c0992f5fdf651b3f4f569782d2d19d9bdba5c626527c7870e
696c9acb8445127a325f337e80538cc545b26ba821b8a1c08fa78fb5d8e228414525a95a81fd2d6f2d7a2fb333bf07d32f5ee8509f3f98990ba4fc58f52b80fb
db3d8b3de2a0c7122ecd43bf593bd12a7e51e53117ee47d2175b8b18ea3e49df4f734d900a8d508c0992f5fdf651b3f4f569782d2d19d9bdba5c626527c7870e
f45989f890f1f781b0c00f6d2bb67250b8181f596be2525dec8545d8be7666304525a95a81fd2d6f2d7a2fb333bf07d32f5ee8509f3f98990ba4fc58f52b80fb
b92b411cd0a6c0dc9a553bef0373d9087e51e53117ee47d2175b8b18ea3e49df4f734d900a8d508c0992f5fdf651b3f4f569782d2d19d9bdba5c626527c7870e
566e65c77f5e4e77ab6893af6ddf6b9f7e51e53117ee47d2175b8b18ea3e49df4f734d900a8d508c0992f5fdf651b3f4f569782d2d19d9bdba5c626527c7870e
5641c922dee737790ec867d6eb907c7fc5cbbb162a670024accae645778bbec24525a95a81fd2d6f2d7a2fb333bf07d32f5ee8509f3f98990ba4fc58f52b80fb
adab6aa3b70c0c0e3e52eda3e9c5e199c5cbbb162a670024accae645778bbec24525a95a81fd2d6f2d7a2fb333bf07d32f5ee8509f3f98990ba4fc58f52b80fb
1c3e0216967c8f44e61069dd5b03b8f279d0fc43c048e8e9dc4c665fd10059e85af5acbaca552d1eb3166cb1e744820b11c40f983dbc67ac99eb7a6532faa9cd
38d922d15df036f3973943d9d1d3147068e69aa19a865cfb6358f562e48a14aae42a285a7ee705f1441ecf7a59769ca01472baa83b348608e21a24612566a270
f85870baa3d18bedebcab6c5cb52d35c7e51e53117ee47d2175b8b18ea3e49df4f734d900a8d508c0992f5fdf651b3f4f569782d2d19d9bdba5c626527c7870e
4e465996383b86184b1c3b84a4e885767e51e53117ee47d2175b8b18ea3e49df4f734d900a8d508c0992f5fdf651b3f4f569782d2d19d9bdba5c626527c7870e
ae5de5ffd5084b20beaef02d46bcd1afd01e7fd9738da8b97a60b04de10b136e4525a95a81fd2d6f2d7a2fb333bf07d32f5ee8509f3f98990ba4fc58f52b80fb
0920651cf31097da6e66f9e543d65134d01e7fd9738da8b97a60b04de10b136e4525a95a81fd2d6f2d7a2fb333bf07d32f5ee8509f3f98990ba4fc58f52b80fb
3548f0811d3be8c5790bf11887d28095d3378622a8cdaf9b0eac874b9dcd383cd2fc3ed2a14d688f61da828382fabd1111c40f983dbc67ac99eb7a6532faa9cd
169d2d86cdf2b0cb924d3d0efc3698359d49c9f2bdb246a60a4765982a9ec7d379ef7cfa71efb01a33ec7a190119135f1472baa83b348608e21a24612566a270
7e2e3622f62a3260deab8ff29c79aafc7e51e53117ee47d2175b8b18ea3e49df4f734d900a8d508c0992f5fdf651b3f4f569782d2d19d9bdba5c626527c7870e
2ea35ffb3f267183a1cd2f52e58711177e51e53117ee47d2175b8b18ea3e49df4f734d900a8d508c0992f5fdf651b3f4f569782d2d19d9bdba5c626527c7870e
37761f827d44c53cce509f23bd54d44d732bce3a828af26732b791460d20837d4525a95a81fd2d6f2d7a2fb333bf07d32f5ee8509f3f98990ba4fc58f52b80fb
9b1a6467467b6e875bcb13a2eef60a59732bce3a828af26732b791460d20837d4525a95a81fd2d6f2d7a2fb333bf07d32f5ee8509f3f98990ba4fc58f52b80fb
bced6fa6f2c700e880f64f43d04044c4f264e337cb296694c32b7c3a8701f0d3ec7c5af197846766368d041727c7b7b81472baa83b348608e21a24612566a270
b3052e240eb5c35a0a35a6c950f8ef4d0eeb19b230f566cf1181a8d2039c49f46c92cc3bc1cfb817fa243523e3709b5394127c935384b745d5d0e1d054328e9e
2cd36e775194e210633d31fd15160ff67e51e53117ee47d2175b8b18ea3e49df4f734d900a8d508c0992f5fdf651b3f4f569782d2d19d9bdba5c626527c7870e
5943c7eabcb118ea3e68dc6667c3944d7e51e53117ee47d2175b8b18ea3e49df4f734d900a8d508c0992f5fdf651b3f4f569782d2d19d9bdba5c626527c7870e
6a98ff755587f56377ecd7ed248b2239dc7b10c2f5632aa181e9543493633d6c4525a95a81fd2d6f2d7a2fb333bf07d32f5ee8509f3f98990ba4fc58f52b80fb
857c053515fbe801a30516386b398d65dc7b10c2f5632aa181e9543493633d6c4525a95a81fd2d6f2d7a2fb333bf07d32f5ee8509f3f98990ba4fc58f52b80fb
253982e654ad0d315da6cd177e2d898167b861884b4caa842cd752cf4fe2681a552d1cbc591345bc4253709883a2c96811c40f983dbc67ac99eb7a6532faa9cd
33aaed9f70722d18b0cf2741e7cfee2bc67646c1c2de8705d37ee36bc015d9e78d2fdae3d65781b359941c77d37859e71472baa83b348608e21a24612566a270
9fae72b43118270a368e6f184298ed257e51e53117ee47d2175b8b18ea3e49df4f734d900a8d508c0992f5fdf651b3f4f569782d2d19d9bdba5c626527c7870e
c6deffdde779d93f2f14d083d2c0fb537e51e53117ee47d2175b8b18ea3e49df4f734d900a8d508c0992f5fdf651b3f4f569782d2d19d9bdba5c626527c7870e
4509c19abd48d5bfa852f31893d51d661ea48e6f7c97c8327ffe21314815a0524525a95a81fd2d6f2d7a2fb333bf07d32f5ee8509f3f98990ba4fc58f52b80fb
5b83c3a1dfcc8f11971df6bdd261641d1ea48e6f7c97c8327ffe21314815a0524525a95a81fd2d6f2d7a2fb333bf07d32f5ee8509f3f98990ba4fc58f52b80fb
c685ad973db69c5835de33010ed87816d4980f2c38053914605e88f258cb42cc12c78842be45cd22618256737cd795aa11c40f983dbc67ac99eb7a6532faa9cd
7915ca50d1a182558dc8bb1c071500e184fbee4e23e0576e8a35bfd03e329398b66a802365d99f63ed463c1073ccb1341472baa83b348608e21a24612566a270
887dbd9beddd799b8dbd1ed2adb3341e7e51e53117ee47d2175b8b18ea3e49df4f734d900a8d508c0992f5fdf651b3f4f569782d2d19d9bdba5c626527c7870e
23bf0d42d00a533bce65e29efe22e1507e51e53117ee47d2175b8b18ea3e49df4f734d900a8d508c0992f5fdf651b3f4f569782d2d19d9bdba5c626527c7870e
67fef1314856046e10b6d4dbdaff19765775dc093466317b690a6f942404e9584525a95a81fd2d6f2d7a2fb333bf07d32f5ee8509f3f98990ba4fc58f52b80fb
5aa5843f723e44067b1618f634c69bf75775dc093466317b690a6f942404e9584525a95a81fd2d6f2d7a2fb333bf07d32f5ee8509f3f98990ba4fc58f52b80fb
21685eda5bdecd19444c73c9947c6ef4af74409e51c0a8ba0e9e42021b67cd27fd47ba286a0c7dd7ecf7248cf023671311c40f983dbc67ac99eb7a6532faa9cd
6d33ca998ec1b5470be0753f511c5d500052f5e1372dc8a7c61d671d39a80efffd83f3d7debb75d6605db68dd7ec85a31472baa83b348608e21a24612566a270
7796e86316d8fbfbbd02bb21c4541d1e7e51e53117ee47d2175b8b18ea3e49df4f734d900a8d508c0992f5fdf651b3f4f569782d2d19d9bdba5c626527c7870e
8b5931cdd201ae37a9c5efda589ff70c0cd2c42b7fccd664570072aabd447f8e4525a95a81fd2d6f2d7a2fb333bf07d32f5ee8509f3f98990ba4fc58f52b80fb
4a374eb8c95bf887f04adbe91871db0e7e51e53117ee47d2175b8b18ea3e49df4f734d900a8d508c0992f5fdf651b3f4f569782d2d19d9bdba5c626527c7870e
6f0cd6eba40a3744503c2ddb52787af9ae5e030fe36733ce45ef405dfc11a47f4525a95a81fd2d6f2d7a2fb333bf07d32f5ee8509f3f98990ba4fc58f52b80fb
1c8b733a9b323f17d0ae57132d8619fe7e51e53117ee47d2175b8b18ea3e49df4f734d900a8d508c0992f5fdf651b3f4f569782d2d19d9bdba5c626527c7870e
f929cc036d52c32998ae6c074c92b8397e51e53117ee47d2175b8b18ea3e49df4f734d900a8d508c0992f5fdf651b3f4f569782d2d19d9bdba5c626527c7870e
0b82bb283f10a265f171a1cb81065bd6f8f6897b3544a2dc4dd4558be9ae7a024525a95a81fd2d6f2d7a2fb333bf07d32f5ee8509f3f98990ba4fc58f52b80fb
ed8e10718af7923b1e652a000c726419f8f6897b3544a2dc4dd4558be9ae7a024525a95a81fd2d6f2d7a2fb333bf07d32f5ee8509f3f98990ba4fc58f52b80fb
4b5f5106640bb5ada191159498ba4f0a8b282d7f730197abb894e8ddf631931680acbddcf7930dca4bb0cdde19a950b8ff00f0f287178503d41d1dca4060484c
83a8bf3652f7baf4a5ee29b903bee409ad2e17cb027765941fe41573463f1f3942e68537bb9d2c4bea9b31cd81ce255411c40f983dbc67ac99eb7a6532faa9cd
8d9b690c20ad2ce0afc24f56ff61935a7e51e53117ee47d2175b8b18ea3e49df4f734d900a8d508c0992f5fdf651b3f4f569782d2d19d9bdba5c626527c7870e
947349ed6d4490b70f2c2317c65a822c7e51e53117ee47d2175b8b18ea3e49df4f734d900a8d508c0992f5fdf651b3f4f569782d2d19d9bdba5c626527c7870e
f146bc1b79bf907a1ed81725f88b2184827320ef1fe6437b0acf8c4ed2735a504525a95a81fd2d6f2d7a2fb333bf07d32f5ee8509f3f98990ba4fc58f52b80fb
cae276bd83f066dad5aab555e89b55ca827320ef1fe6437b0acf8c4ed2735a504525a95a81fd2d6f2d7a2fb333bf07d32f5ee8509f3f98990ba4fc58f52b80fb
4c3ef42385d4bd7f27add3688282cd96be1d3b0ee3905d64f0631596b5229fe5e873ca43aa602a1b5124221c33de0fccff00f0f287178503d41d1dca4060484c
5f1adb2c5131289876e30a353f958cb4a84370e08dfacc9694d728754aabf6102ea716738120a1dd80eec3241f06290e11c40f983dbc67ac99eb7a6532faa9cd
d2597439a6bc5ab39abac859574cdc2e7e51e53117ee47d2175b8b18ea3e49df4f734d900a8d508c0992f5fdf651b3f4f569782d2d19d9bdba5c626527c7870e
753e8b619861b06353c2969f1acc9f4e7e51e53117ee47d2175b8b18ea3e49df4f734d900a8d508c0992f5fdf651b3f4f569782d2d19d9bdba5c626527c7870e
0f6e7e80fd84c9c6570a5f5298517febb9c868d370c7ce2b4676ee8c49d59ad04525a95a81fd2d6f2d7a2fb333bf07d32f5ee8509f3f98990ba4fc58f52b80fb
88622c77e318b654c2ca273181eece7db9c868d370c7ce2b4676ee8c49d59ad04525a95a81fd2d6f2d7a2fb333bf07d32f5ee8509f3f98990ba4fc58f52b80fb
5d755926dc3a9b03e1e19bd47cd85bfb1d3244068fc48528cea76e8eabc0ae5342797e5ba78547f8df52858486c2c2a4ff00f0f287178503d41d1dca4060484c
62d97a4764a1e5dde0c3fa077ebcb8cb2dde1997ef2dcde609ae97fc8e2cf5ad05ea3b55fb6c011581289ccd628bd2fe11c40f983dbc67ac99eb7a6532faa9cd
d6a6a1a1aef3678a13e427b6d6cd638d7e51e53117ee47d2175b8b18ea3e49df4f734d900a8d508c0992f5fdf651b3f4f569782d2d19d9bdba5c626527c7870e
bc2fcec65e9ac1c7fd2f9e70cec0632ed3b08336260e0e018a216a81de715d9d4525a95a81fd2d6f2d7a2fb333bf07d32f5ee8509f3f98990ba4fc58f52b80fb
86371d1150550fce5c3200fe01a377af7e51e53117ee47d2175b8b18ea3e49df4f734d900a8d508c0992f5fdf651b3f4f569782d2d19d9bdba5c626527c7870e
f4223b6242b7a6d95422b0ac58602b267e51e53117ee47d2175b8b18ea3e49df4f734d900a8d508c0992f5fdf651b3f4f569782d2d19d9bdba5c626527c7870e
1a11beed74f2d1abf81d5200da8ec82fa8b401db2642f88911e38ce93bda024a4525a95a81fd2d6f2d7a2fb333bf07d32f5ee8509f3f98990ba4fc58f52b80fb
827a44c4ac69286389a34a488a7eca7da8b401db2642f88911e38ce93bda024a4525a95a81fd2d6f2d7a2fb333bf07d32f5ee8509f3f98990ba4fc58f52b80fb
d3d9cda5d8ff5cfab1b72330991899cdd2594c1681cbd77bd9eacde170eae17bd48287d3053d36f91df8f903b62af3e7ff00f0f287178503d41d1dca4060484c
1cd120ad52c5ba9ce8c4800bc0b674603a84f1f0de038ef1fa412ce82d6c981d975dde0dc6e1db54f0c399bbd792a94a11c40f983dbc67ac99eb7a6532faa9cd
58fd84e5bfe9d696074d8166a171a98e7e51e53117ee47d2175b8b18ea3e49df4f734d900a8d508c0992f5fdf651b3f4f569782d2d19d9bdba5c626527c7870e
b1cc5b33be0a4a2ff0199678ed9e6acf4c48bbe28bd0fcf9dade07a36743583c4525a95a81fd2d6f2d7a2fb333bf07d32f5ee8509f3f98990ba4fc58f52b80fb
f9bdab812d4e698c9376290b52dba5ad7e51e53117ee47d2175b8b18ea3e49df4f734d900a8d508c0992f5fdf651b3f4f569782d2d19d9bdba5c626527c7870e
828541c0a22151321f4ed4ad2cd3f6de8765cfe2b05888d5b037178cc2c695b14525a95a81fd2d6f2d7a2fb333bf07d32f5ee8509f3f98990ba4fc58f52b80fb
5b3f643149035a97d11456db450029737e51e53117ee47d2175b8b18ea3e49df4f734d900a8d508c0992f5fdf651b3f4f569782d2d19d9bdba5c626527c7870e
b3d5f4e777a3ad6e078f25df4261b95580bd47ca05312e3bd213a72e42eb77ca4525a95a81fd2d6f2d7a2fb333bf07d32f5ee8509f3f98990ba4fc58f52b80fb
30f9c08c43c34702ff3cc384a56e26527e51e53117ee47d2175b8b18ea3e49df4f734d900a8d508c0992f5fdf651b3f4f569782d2d19d9bdba5c626527c7870e
572971e62fc5e0256e0ac5ba20a69dbe1d27e32b3a0690bf958d936810d912244525a95a81fd2d6f2d7a2fb333bf07d32f5ee8509f3f98990ba4fc58f52b80fb
da05ba6035facbacc01a6b0d2f17687e7e51e53117ee47d2175b8b18ea3e49df4f734d900a8d508c0992f5fdf651b3f4f569782d2d19d9bdba5c626527c7870e
565e3f216a883e2ea987c84126476bf9b39dc07654932bb24042e02ed2a3c9254525a95a81fd2d6f2d7a2fb333bf07d32f5ee8509f3f98990ba4fc58f52b80fb
685c5f30e90a26ae29faa4d560683a997e51e53117ee47d2175b8b18ea3e49df4f734d900a8d508c0992f5fdf651b3f4f569782d2d19d9bdba5c626527c7870e
20bd2a936ed6ad0f2c6b7797f9da2f2adc8343657ccb26b6c2ccf11e2e19e4f74525a95a81fd2d6f2d7a2fb333bf07d32f5ee8509f3f98990ba4fc58f52b80fb
0f4632cc1ab84d928334dd1770350e2d7e51e53117ee47d2175b8b18ea3e49df4f734d900a8d508c0992f5fdf651b3f4f569782d2d19d9bdba5c626527c7870e
25557ec0c579779a765ff6a77f2737f07e51e53117ee47d2175b8b18ea3e49df4f734d900a8d508c0992f5fdf651b3f4f569782d2d19d9bdba5c626527c7870e
6bf913ebc392a6f2d9da50e90e66cbc83373b49b1beb5281a1bc8e9b0c148e3a4525a95a81fd2d6f2d7a2fb333bf07d32f5ee8509f3f98990ba4fc58f52b80fb
6aa8292131e7750b88271d0590c426863373b49b1beb5281a1bc8e9b0c148e3a4525a95a81fd2d6f2d7a2fb333bf07d32f5ee8509f3f98990ba4fc58f52b80fb
c4bde1f75785382d1930c3392f6547fa25aac7ee7598681f00c9b63d0eba161cfaa16b6be3018ec185dfe9c6dc6b0d3711c40f983dbc67ac99eb7a6532faa9cd
94e267dc5ed200e9c6c6a7547d344821e66a031e6e96e31edd1f6fc10cb71e65be4cb62acaa982305a8cad3b2cb1571d1472baa83b348608e21a24612566a270
8975a5edea6d551c8cea4b14d87937c47e51e53117ee47d2175b8b18ea3e49df4f734d900a8d508c0992f5fdf651b3f4f569782d2d19d9bdba5c626527c7870e
72a3ec51e4d85443af73a0115d420e14add2490004e780e570960b7aa3fab5634525a95a81fd2d6f2d7a2fb333bf07d32f5ee8509f3f98990ba4fc58f52b80fb
a69c23838cd5269572566109b52c96447e51e53117ee47d2175b8b18ea3e49df4f734d900a8d508c0992f5fdf651b3f4f569782d2d19d9bdba5c626527c7870e
afb78c67067ec97d4c1bc974871fccd27e51e53117ee47d2175b8b18ea3e49df4f734d900a8d508c0992f5fdf651b3f4f569782d2d19d9bdba5c626527c7870e
64ec7f4cc179f9244692392d291f3af18d898aceb9b7ab7e0c8b0d4f0d9355244525a95a81fd2d6f2d7a2fb333bf07d32f5ee8509f3f98990ba4fc58f52b80fb
3c6a1b339f08f72d2c9aa37059130dcf8d898aceb9b7ab7e0c8b0d4f0d9355244525a95a81fd2d6f2d7a2fb333bf07d32f5ee8509f3f98990ba4fc58f52b80fb
2dd9a79f69434c229824ec9fb1d92dcc62eef83463a8cf42a4aedbbf75a08c2f6db57d68ca7dc427fd33ebd40908f83dff00f0f287178503d41d1dca4060484c