**************************************************
* Manufacturer:           Wurth Elektronik 
* Kinds:                  AQ Transformer
* Matchcode:              WE-LAN AQ
* Library Type:           Pspice
* Version:                rev22b
* Created/modified by:    Ella      
* Date and Time:          2022-08-18
* Team:                   eiSos EDA Service  
* Contact:                libraries@we-online.com
**************************************************
* Copyright(C) 2022 Würth Elektronik eiSos GmbH & Co. KG
* All Rights Reserved.
**************************************************
* Disclaimer: While Würth Elektronik eiSos has made every reasonable effort to ensure the accuracy
* of the simulation models provided, Würth Elektronik eiSos does not guarantee the exemption of error on
* the simulation models, nor does Würth Elektronik eiSos guarantee that the simulation model is current.
* Würth Elektronik eiSos reserves the right to make any adjustments at any time without notice.
* Würth Elektronik eiSos expressly disclaims all implied warranties regarding this simulation model.
**************************************************
**$ENCRYPTED_LIB
**$INTERFACE
.subckt 749010310 1 2 3 4 5 6
$CDNENCSTART_ADV2
17f62b1fb318c25603aeb85644ae98a5d179ef807807791f6459efacb9d7ffc37a831b146dc0f06bb1ef275619162e6d8f7ad0dc708bf15ae1a1d5bd0ae623b2
08cd889865a789262e3ad64e69fb170f458aa8a87911d6f92380ed9212a93b5de007635df5e34d069f75078bf8e82a813762606dd4dbdd2c90628d8c5df0cbf7
9f6547d8ff96a295f1e6e6ecc27ebd10458aa8a87911d6f92380ed9212a93b5de007635df5e34d069f75078bf8e82a813762606dd4dbdd2c90628d8c5df0cbf7
f1b2532c00acb3cf79d01cec36477326458aa8a87911d6f92380ed9212a93b5de007635df5e34d069f75078bf8e82a813762606dd4dbdd2c90628d8c5df0cbf7
be2074b04d4c33524e6df1c4e42b5bd7458aa8a87911d6f92380ed9212a93b5de007635df5e34d069f75078bf8e82a813762606dd4dbdd2c90628d8c5df0cbf7
b6db1296e9baa3a4ec0517a0e0e05853458aa8a87911d6f92380ed9212a93b5de007635df5e34d069f75078bf8e82a813762606dd4dbdd2c90628d8c5df0cbf7
35db761382a2a10513a82d976973b4ee458aa8a87911d6f92380ed9212a93b5de007635df5e34d069f75078bf8e82a813762606dd4dbdd2c90628d8c5df0cbf7
ec5ec23c93110f648342b9104a33bb77458aa8a87911d6f92380ed9212a93b5de007635df5e34d069f75078bf8e82a813762606dd4dbdd2c90628d8c5df0cbf7
017820828fe31027faa33a7660c48c59458aa8a87911d6f92380ed9212a93b5de007635df5e34d069f75078bf8e82a813762606dd4dbdd2c90628d8c5df0cbf7
dcf60e45e1771b199921e2c6aadc41af2d9a5ec16daf2441a127adeb97e46a0d7883ec0df9b7f01779e75c81abc6b8cff398680548e0e59cd2cc6339abc5319a
b6d384be47c469a05523bd227cfbbb5d2d9a5ec16daf2441a127adeb97e46a0d7883ec0df9b7f01779e75c81abc6b8cff398680548e0e59cd2cc6339abc5319a
c93a1f354edcd4b04ed49f1a71e657482d9a5ec16daf2441a127adeb97e46a0d7883ec0df9b7f01779e75c81abc6b8cff398680548e0e59cd2cc6339abc5319a
279e15148573dfe5acc63f98471804f82d9a5ec16daf2441a127adeb97e46a0d7883ec0df9b7f01779e75c81abc6b8cff398680548e0e59cd2cc6339abc5319a

63b7aa7029108033c5b1d8da4645eff0d072033bf4c146639dc3bbf88d5bd2b094cd1927256e7eefd34f022fafa1e2839cde3d7d212df4f4a1ced55c5048b967
e31dd812c833e0d1b04fd655c33e8dcc2d9a5ec16daf2441a127adeb97e46a0d7883ec0df9b7f01779e75c81abc6b8cff398680548e0e59cd2cc6339abc5319a
94aac10f0c895664e64b4a6ff1168c28b52087500fe1cfa9ee3ac3e6d8137cc9965ed515844bfd1dda2499b08b5de2eaf80ba1a3cac7c7092bec3f8a3b626afc
3a59cece0d3f3988f470cab61db520a1d072033bf4c146639dc3bbf88d5bd2b094cd1927256e7eefd34f022fafa1e2839cde3d7d212df4f4a1ced55c5048b967
a1d2d2b4455909906ce0b718bc0144c52d9a5ec16daf2441a127adeb97e46a0d7883ec0df9b7f01779e75c81abc6b8cff398680548e0e59cd2cc6339abc5319a
8cd5fcbe7a770f771aed29b8eb0873bab52087500fe1cfa9ee3ac3e6d8137cc9965ed515844bfd1dda2499b08b5de2eaf80ba1a3cac7c7092bec3f8a3b626afc
91c611233076d1cf710b48590ad7c8e9d072033bf4c146639dc3bbf88d5bd2b094cd1927256e7eefd34f022fafa1e2839cde3d7d212df4f4a1ced55c5048b967
8ecf1adfba1028eefa455985bfe86be02d9a5ec16daf2441a127adeb97e46a0d7883ec0df9b7f01779e75c81abc6b8cff398680548e0e59cd2cc6339abc5319a
3e08c38852e91add41d734686c48a4c6b52087500fe1cfa9ee3ac3e6d8137cc9965ed515844bfd1dda2499b08b5de2eaf80ba1a3cac7c7092bec3f8a3b626afc
1de48f9ddef4bf2c62ff8ad21d1d83b1d072033bf4c146639dc3bbf88d5bd2b094cd1927256e7eefd34f022fafa1e2839cde3d7d212df4f4a1ced55c5048b967
d8c2d63180e804b82e194bb3a9908d812d9a5ec16daf2441a127adeb97e46a0d7883ec0df9b7f01779e75c81abc6b8cff398680548e0e59cd2cc6339abc5319a
176d4856e2c8bd3317a8b13d65ef03f9b52087500fe1cfa9ee3ac3e6d8137cc9965ed515844bfd1dda2499b08b5de2eaf80ba1a3cac7c7092bec3f8a3b626afc
1a75dd0ce67bbb64599f57f303008744d072033bf4c146639dc3bbf88d5bd2b094cd1927256e7eefd34f022fafa1e2839cde3d7d212df4f4a1ced55c5048b967
4d9edf68066291bc022f3ccc6cb040c62d9a5ec16daf2441a127adeb97e46a0d7883ec0df9b7f01779e75c81abc6b8cff398680548e0e59cd2cc6339abc5319a
ce8b83834219b31438ca25277420adeeb52087500fe1cfa9ee3ac3e6d8137cc9965ed515844bfd1dda2499b08b5de2eaf80ba1a3cac7c7092bec3f8a3b626afc
40bbd7871f7ce697b5cf594928c33453d072033bf4c146639dc3bbf88d5bd2b094cd1927256e7eefd34f022fafa1e2839cde3d7d212df4f4a1ced55c5048b967
2a2bc220fd7d06ac7759caba265c78532d9a5ec16daf2441a127adeb97e46a0d7883ec0df9b7f01779e75c81abc6b8cff398680548e0e59cd2cc6339abc5319a
cab9b9b5fbe195f448e97ef87c514c6bb52087500fe1cfa9ee3ac3e6d8137cc9965ed515844bfd1dda2499b08b5de2eaf80ba1a3cac7c7092bec3f8a3b626afc

fd3f47e397bdfe93993a194de12c146f7513606f456ecfb5eb64c6c42bb9bf4c17c2b639045eeaaa6651e341cf82f1dd4a6d4d6611b9a6fede96bb8f1324e82b
021070f4f5b39e4bc79751c85561825a9102f075da134e30b7692b9c5b6a832ec1d7dc307eb9276df1a06fce2d6894def44b385e3416f582dbd70eb7b4bb34e6
b4b249bdba5d72c697ab34eb52837ae37513606f456ecfb5eb64c6c42bb9bf4c17c2b639045eeaaa6651e341cf82f1dd4a6d4d6611b9a6fede96bb8f1324e82b
3f18c133969b524351593e47bc08911e462393f5061ab0189b39f218b65bad84c1d7dc307eb9276df1a06fce2d6894def44b385e3416f582dbd70eb7b4bb34e6
670dfa1ff9549182746febc7f3e2e8a17513606f456ecfb5eb64c6c42bb9bf4c17c2b639045eeaaa6651e341cf82f1dd4a6d4d6611b9a6fede96bb8f1324e82b
cf0123f8a13168400909e3629078c9ed6c662aff9031f174b844a807dfe91a36c1d7dc307eb9276df1a06fce2d6894def44b385e3416f582dbd70eb7b4bb34e6
14f247d4dda8b01d8c0ce956ac105de67513606f456ecfb5eb64c6c42bb9bf4c17c2b639045eeaaa6651e341cf82f1dd4a6d4d6611b9a6fede96bb8f1324e82b
25736138a30f30dd1328fed7fe3952ef7513606f456ecfb5eb64c6c42bb9bf4c17c2b639045eeaaa6651e341cf82f1dd4a6d4d6611b9a6fede96bb8f1324e82b
20cc0adcde1c3c23159747556890c13059743a7e9c9c4460e3a5adc07b3d7442c1d7dc307eb9276df1a06fce2d6894def44b385e3416f582dbd70eb7b4bb34e6
15cfbb901115de92775ddcd693162c5e59743a7e9c9c4460e3a5adc07b3d7442c1d7dc307eb9276df1a06fce2d6894def44b385e3416f582dbd70eb7b4bb34e6
95b46c6cb8320a0766b2182c9e94f9153f1e343f53d43e268f925dd91459d4541f5bd48246075ac206a0a69f602e956cd5fe57336be20364122155de990b3a12
534d7b26de7282863731bd517cc61b077bd35e27be61a9021835fc320523b772619076b6d4085dd27df60a052244dc33ad4e9e04cfb923841a691e5612953aaa
3c14c05420949055d9726d418399ecb17513606f456ecfb5eb64c6c42bb9bf4c17c2b639045eeaaa6651e341cf82f1dd4a6d4d6611b9a6fede96bb8f1324e82b
d1257311aa49bcbe6d2bcbd2e5a78490875bffa14e8090a6e3f169a256c60761c1d7dc307eb9276df1a06fce2d6894def44b385e3416f582dbd70eb7b4bb34e6
d6d6fa5a48c16f9501c3e7136a5678187513606f456ecfb5eb64c6c42bb9bf4c17c2b639045eeaaa6651e341cf82f1dd4a6d4d6611b9a6fede96bb8f1324e82b
4a5a9f06cbc03ed76bf0eea333a460c27513606f456ecfb5eb64c6c42bb9bf4c17c2b639045eeaaa6651e341cf82f1dd4a6d4d6611b9a6fede96bb8f1324e82b
07580fed883f879bc5f24eafd3432d19d8f67c523f644fce791827b2c657707ec1d7dc307eb9276df1a06fce2d6894def44b385e3416f582dbd70eb7b4bb34e6
2dfd1b022fe5035dd19b7e5fa3f17236d8f67c523f644fce791827b2c657707ec1d7dc307eb9276df1a06fce2d6894def44b385e3416f582dbd70eb7b4bb34e6
1e443245a6c8236c241014d607bab01d1fbc7da1f9024bf68b16c47913849e6a91d44f92440fecd98f1cdad6fe5e1414d5fe57336be20364122155de990b3a12
2a65377e7a2ab840026d07b43212d215032997b2c54e0d0a86a6633287a400264b4ed8a95faf1fd69366ff4ffb963d63ad4e9e04cfb923841a691e5612953aaa
4ce51f3d971c348a32481de62d62ce647513606f456ecfb5eb64c6c42bb9bf4c17c2b639045eeaaa6651e341cf82f1dd4a6d4d6611b9a6fede96bb8f1324e82b
f883e9093fc657d01b22ccadeefebb628c882db029dd2d76e8c36949e81606da65fadab006340c164d274e3a229b84453cfe57be10d089d08ed9143d08ec5a42
9459ab1e612595140d449b5c378412b1d857b2846415d64342666a8b9172ca28c1d7dc307eb9276df1a06fce2d6894def44b385e3416f582dbd70eb7b4bb34e6
829699ffcf11e8429b24335e8c88493166fd567f6a282a2db5e8aed2e9ee498bd6a5496af32808be8b4213825904c64264f8671837a8649455cdc814a65b356a
b00e10bd61d285234f65f65360bbba0890dad41bd5f6b812daa07ad10873b85a17b9fb4bbb7a6f8435e0098c64a5bf7a30f98fc9e8b58ef5da9b66939fb21ba6
0120a6974ad56b3692b8d615b17f6216a5ae37a51e303f488aa6e28764657f7217b9fb4bbb7a6f8435e0098c64a5bf7a30f98fc9e8b58ef5da9b66939fb21ba6
77cc3859eee5539389e0417f43523aa88c882db029dd2d76e8c36949e81606da65fadab006340c164d274e3a229b84453cfe57be10d089d08ed9143d08ec5a42
a410e0da223cb4bfc7fa27dda963a82b65f31759f7d0b446278293e3df6b4eecd6a5496af32808be8b4213825904c64264f8671837a8649455cdc814a65b356a
9aa6e10e19cc7e4514dba6a7c3f649238c882db029dd2d76e8c36949e81606da65fadab006340c164d274e3a229b84453cfe57be10d089d08ed9143d08ec5a42
0fd71193efba781d6006da4b471b5ad38c882db029dd2d76e8c36949e81606da65fadab006340c164d274e3a229b84453cfe57be10d089d08ed9143d08ec5a42
411742d443eebdda84187187d4c2fc17907e155c7dce8389c80bcf8e24015868d6a5496af32808be8b4213825904c64264f8671837a8649455cdc814a65b356a
23702c292eae5fe2ba5936598a180b66907e155c7dce8389c80bcf8e24015868d6a5496af32808be8b4213825904c64264f8671837a8649455cdc814a65b356a
87d9cb11c7b2d2567dbfa8983867cfb36edd091f1c2fa2f4635521767b34d88fdd32d2d7068720f70dcab9e8534e7ec530f98fc9e8b58ef5da9b66939fb21ba6
8fa8748cbda168ad3b5571ad19b91e27ff65d6e618e8b4cb2d29848ab8c3244937b606e57b56d9634d88244cc2a49e3dd5fe57336be20364122155de990b3a12
4aa9bd662eade2f9dc657a896007cdca8c882db029dd2d76e8c36949e81606da65fadab006340c164d274e3a229b84453cfe57be10d089d08ed9143d08ec5a42
b2f4eb10782ab04fb921eee39ba696762c98edcc436e320b99156dc607a32044ab8c0eadecee6bec94b17904ddacce0565ef5accca45f96839e377318e739be0
a88ed8fdd32f8924890e8c13873019068c882db029dd2d76e8c36949e81606da65fadab006340c164d274e3a229b84453cfe57be10d089d08ed9143d08ec5a42
da73de47cb777ff2ad7f6a2a47d8e71a8c882db029dd2d76e8c36949e81606da65fadab006340c164d274e3a229b84453cfe57be10d089d08ed9143d08ec5a42
1a55033a2d16777810138acf271d0980d5c9342cfa2dd9dc2e9701006ea47524d6a5496af32808be8b4213825904c64264f8671837a8649455cdc814a65b356a
ca5782ff5110b6bbdb429d7bb491a148d5c9342cfa2dd9dc2e9701006ea47524d6a5496af32808be8b4213825904c64264f8671837a8649455cdc814a65b356a
b854a5be7ba91d628ffa0c491015e8bc1ddf0d158fcd10e3e574c637dcfda3c37402a91a87a6b0906bde3a082ee8225be06a8a0ecc763c9865e8646b9a8c5023
e860c02774a511a2d1d2f718794e27948601b00c4e0796f40a9c0528a933a5024805bdc09a28a79e72dffdfac755386b30f98fc9e8b58ef5da9b66939fb21ba6
4bd183e9e36a27d432bb31e9a2d5ec408c882db029dd2d76e8c36949e81606da65fadab006340c164d274e3a229b84453cfe57be10d089d08ed9143d08ec5a42
afa46912bbc27bbea0370a1283311f198c882db029dd2d76e8c36949e81606da65fadab006340c164d274e3a229b84453cfe57be10d089d08ed9143d08ec5a42
2843e62b6519036f426cf8fa48fdabb7552bda41eefec72065a8069a441a851ad6a5496af32808be8b4213825904c64264f8671837a8649455cdc814a65b356a
97e1305c0549a8ec253c7d396ac4a5db552bda41eefec72065a8069a441a851ad6a5496af32808be8b4213825904c64264f8671837a8649455cdc814a65b356a
c9a544f26270af4bf03972a27f75f5deafd8ded178189897a7253543f0d91939ada44410adc612c8e5cc24fec6f04e4e30f98fc9e8b58ef5da9b66939fb21ba6
83eac7cbe6d5605e66ad4d3ed47cdb1af412e899b98a1bda2741f881676bd503133d2f97778413a34219304ef86df8a9d5fe57336be20364122155de990b3a12
295eb6c1bdfd8061cd6eaa45e8215ad68c882db029dd2d76e8c36949e81606da65fadab006340c164d274e3a229b84453cfe57be10d089d08ed9143d08ec5a42
61789de81dd1a1df5f4610384fcabc3b8c882db029dd2d76e8c36949e81606da65fadab006340c164d274e3a229b84453cfe57be10d089d08ed9143d08ec5a42
20bcbb99a01edca1ec011f22f6e94883314f3e5b34dec57f024f3946e80f409dd6a5496af32808be8b4213825904c64264f8671837a8649455cdc814a65b356a
09b3ada96af46da4f440a88a93d73350314f3e5b34dec57f024f3946e80f409dd6a5496af32808be8b4213825904c64264f8671837a8649455cdc814a65b356a
30b9c3a29b5629303c7de51caa9e6fe7ed6216ca81770432a3f5354aa50b48c988a5334ebdd059e6a231c0d245b6055be06a8a0ecc763c9865e8646b9a8c5023
acdd755d3e55d8bda1f105c9a5ee35fe583c23f161edb3cd2fb0bac514a79d67ea984136662b09ef9c50c12207624ac430f98fc9e8b58ef5da9b66939fb21ba6
a249bb0d25ec739a016f3c6c71e13f228c882db029dd2d76e8c36949e81606da65fadab006340c164d274e3a229b84453cfe57be10d089d08ed9143d08ec5a42
f0e3eb61bf1d95a401338b75fa76bfff8c882db029dd2d76e8c36949e81606da65fadab006340c164d274e3a229b84453cfe57be10d089d08ed9143d08ec5a42
5cb238f2b2e8484ce4a340b946ebbb93e168fcdb861094435bdbb9330ddbfc27d6a5496af32808be8b4213825904c64264f8671837a8649455cdc814a65b356a
4ed81850ef50d2f88a87e290bfb6b727e168fcdb861094435bdbb9330ddbfc27d6a5496af32808be8b4213825904c64264f8671837a8649455cdc814a65b356a
701d43e51efc4ad33d839ea4457ed09e92cd4a574d1db6ccec757216990c9940bd92dd7f59b72b668a30e7f33625f3d0e06a8a0ecc763c9865e8646b9a8c5023
9c942971b9a780af595865531fb361e71f95a528483490867f781b96c212482f353ffc18e9261f89312827790240ac7e30f98fc9e8b58ef5da9b66939fb21ba6
015199ca07eff7d1fc72553cd3d35fd88c882db029dd2d76e8c36949e81606da65fadab006340c164d274e3a229b84453cfe57be10d089d08ed9143d08ec5a42
f81bcbce1eb5bbeac0918a398aa882dd8c6f7e223835c31e3abc4eb0b093af34d6a5496af32808be8b4213825904c64264f8671837a8649455cdc814a65b356a
9edcfd04e904880f01fbea799842325c8c882db029dd2d76e8c36949e81606da65fadab006340c164d274e3a229b84453cfe57be10d089d08ed9143d08ec5a42
d7795db7bc982febd9862caf4d7b0f570e5caff2e0c8e9d068a858727262d34bd6a5496af32808be8b4213825904c64264f8671837a8649455cdc814a65b356a
cef75906c9b283034a821ac459d944088c882db029dd2d76e8c36949e81606da65fadab006340c164d274e3a229b84453cfe57be10d089d08ed9143d08ec5a42
fba2b07d752c71114fef19a33b2730810e37dc116684a13990115476eaa257fcd6a5496af32808be8b4213825904c64264f8671837a8649455cdc814a65b356a
2ce6093db945d322bffab33178794e2f8c882db029dd2d76e8c36949e81606da65fadab006340c164d274e3a229b84453cfe57be10d089d08ed9143d08ec5a42
6f3c3929ac4194448670d124314677748c882db029dd2d76e8c36949e81606da65fadab006340c164d274e3a229b84453cfe57be10d089d08ed9143d08ec5a42
5babf08a5027d3f72729bb95ff8cce3419cf52be7b6d7b1183360007be8a742ad6a5496af32808be8b4213825904c64264f8671837a8649455cdc814a65b356a
1ed180f28185334fa8a9b0ab62b6ab3c19cf52be7b6d7b1183360007be8a742ad6a5496af32808be8b4213825904c64264f8671837a8649455cdc814a65b356a
5734ad86dc4ab3d9e9e7ff5a237476e0e1ed3134f2e66a92821895ab44010160f76356ba7513545d5681d09eb9ad936c23c1edbf992f5dd983b8121ff64804c0
439c8d7a334532c2d2f482913a63335ae13ae2248e966198b2a78de8fd6ebebf2fa01da8054fe1db4a4f1e8e1f979403e06a8a0ecc763c9865e8646b9a8c5023
ccd75920cedf6f7699af4a57901434eb8c882db029dd2d76e8c36949e81606da65fadab006340c164d274e3a229b84453cfe57be10d089d08ed9143d08ec5a42
d6abd5096d3deeb3502676790390c31276562b85027a391e0fe8015f769ed89fd6a5496af32808be8b4213825904c64264f8671837a8649455cdc814a65b356a
c9775f933945d3f5418acf83c9c5a80b8c882db029dd2d76e8c36949e81606da65fadab006340c164d274e3a229b84453cfe57be10d089d08ed9143d08ec5a42
0457864f36ec80f5960a7dbeb1b78e6b8c882db029dd2d76e8c36949e81606da65fadab006340c164d274e3a229b84453cfe57be10d089d08ed9143d08ec5a42
dd0ad01d8a5c2142b34664d405d51c26438295066219f06da63449e265916a98d6a5496af32808be8b4213825904c64264f8671837a8649455cdc814a65b356a
48e364bed3fbc9d3e27807ed40b47e2b438295066219f06da63449e265916a98d6a5496af32808be8b4213825904c64264f8671837a8649455cdc814a65b356a
37696b08e385aea6cd25812b2321df00ccdbc98b7fde3fc87cc3eae383033995eccf8cd6bf7875651f991b2b57d6ad5023c1edbf992f5dd983b8121ff64804c0
0764e70414730f5d0c61e42a6e99873b0d2239fd6dc0ef0a35154bdfef9be5d102c1f6f9f15cf38d1bff41a5938ebc2fe06a8a0ecc763c9865e8646b9a8c5023
f67bd2801c365b8d6c644768fc0aae358c882db029dd2d76e8c36949e81606da65fadab006340c164d274e3a229b84453cfe57be10d089d08ed9143d08ec5a42
d5ca6e12b7c41c989abe83663bed5c5e8c882db029dd2d76e8c36949e81606da65fadab006340c164d274e3a229b84453cfe57be10d089d08ed9143d08ec5a42
5724490453acc111a5409204a655737f66fd567f6a282a2db5e8aed2e9ee498bd6a5496af32808be8b4213825904c64264f8671837a8649455cdc814a65b356a
d5ead7bb7f307baa8d7db17df82efcce66fd567f6a282a2db5e8aed2e9ee498bd6a5496af32808be8b4213825904c64264f8671837a8649455cdc814a65b356a
ad4397f07792d67861da379196e240ee8110bda4b20cc31a516e2f1674b7efd1b110daa25e1ef4893d0c2ce90de33ccc23c1edbf992f5dd983b8121ff64804c0
e55593297615c6b59a4c567f0d7b3d934da8a1b6e151ce699f0cf4b3c1648867ca7b259f559419649e0383bb3d0f93aee06a8a0ecc763c9865e8646b9a8c5023
f19665046fb8c358b036fabe3b66a7838c882db029dd2d76e8c36949e81606da65fadab006340c164d274e3a229b84453cfe57be10d089d08ed9143d08ec5a42
9615b03da5b101ac288c2fcfecd0791365f31759f7d0b446278293e3df6b4eecd6a5496af32808be8b4213825904c64264f8671837a8649455cdc814a65b356a
5c1f1742c87a20d055c712618505877b8c882db029dd2d76e8c36949e81606da65fadab006340c164d274e3a229b84453cfe57be10d089d08ed9143d08ec5a42
05c500ad37ae0972b0cc5bbf8a98cfbf8c882db029dd2d76e8c36949e81606da65fadab006340c164d274e3a229b84453cfe57be10d089d08ed9143d08ec5a42
42e7cd5083136a4c90eb3b5e16fb70cc907e155c7dce8389c80bcf8e24015868d6a5496af32808be8b4213825904c64264f8671837a8649455cdc814a65b356a
508c5d6f85102b83b0a4e45d0a1364a3907e155c7dce8389c80bcf8e24015868d6a5496af32808be8b4213825904c64264f8671837a8649455cdc814a65b356a
f65ed3d7561d4f9635243ec2fe6f84486edd091f1c2fa2f4635521767b34d88fdd32d2d7068720f70dcab9e8534e7ec530f98fc9e8b58ef5da9b66939fb21ba6
a1d289d01376eab71187566669727fc1ff65d6e618e8b4cb2d29848ab8c3244937b606e57b56d9634d88244cc2a49e3dd5fe57336be20364122155de990b3a12
b7873db39d297b6e64f4b140fbc6e8d78c882db029dd2d76e8c36949e81606da65fadab006340c164d274e3a229b84453cfe57be10d089d08ed9143d08ec5a42
59793672d0b59dab6d34caffea5e9c6f2c98edcc436e320b99156dc607a32044ab8c0eadecee6bec94b17904ddacce0565ef5accca45f96839e377318e739be0
9f8e70bd1da22279e3a71083fbc46b4d8c882db029dd2d76e8c36949e81606da65fadab006340c164d274e3a229b84453cfe57be10d089d08ed9143d08ec5a42
7cd925c66386a1fa66649ad22672ba478c882db029dd2d76e8c36949e81606da65fadab006340c164d274e3a229b84453cfe57be10d089d08ed9143d08ec5a42
3ed138821062e64da9dfd42354fa617ad5c9342cfa2dd9dc2e9701006ea47524d6a5496af32808be8b4213825904c64264f8671837a8649455cdc814a65b356a
cfdf5ecd4cb8802bc9a9b7c1528d2714d5c9342cfa2dd9dc2e9701006ea47524d6a5496af32808be8b4213825904c64264f8671837a8649455cdc814a65b356a
6a1e38a94eab2de19723f333d032ca311ddf0d158fcd10e3e574c637dcfda3c37402a91a87a6b0906bde3a082ee8225be06a8a0ecc763c9865e8646b9a8c5023
ef2654d4987d5851635bbe5268ba54978601b00c4e0796f40a9c0528a933a5024805bdc09a28a79e72dffdfac755386b30f98fc9e8b58ef5da9b66939fb21ba6
91f8bf25aa856ebea94c07bc0d7d47eb8c882db029dd2d76e8c36949e81606da65fadab006340c164d274e3a229b84453cfe57be10d089d08ed9143d08ec5a42
87875c137ab736a7a42bd30ba88ac6408c882db029dd2d76e8c36949e81606da65fadab006340c164d274e3a229b84453cfe57be10d089d08ed9143d08ec5a42
90e6b7ffbc23b0c7dda417dfac58c7a5552bda41eefec72065a8069a441a851ad6a5496af32808be8b4213825904c64264f8671837a8649455cdc814a65b356a
22e4daedb18462abdb7d39304b8d6d99552bda41eefec72065a8069a441a851ad6a5496af32808be8b4213825904c64264f8671837a8649455cdc814a65b356a
1c3e0216967c8f44e61069dd5b03b8f2afd8ded178189897a7253543f0d91939ada44410adc612c8e5cc24fec6f04e4e30f98fc9e8b58ef5da9b66939fb21ba6
38d922d15df036f3973943d9d1d31470f412e899b98a1bda2741f881676bd503133d2f97778413a34219304ef86df8a9d5fe57336be20364122155de990b3a12
507352debe493a71e3d614784b76d0378c882db029dd2d76e8c36949e81606da65fadab006340c164d274e3a229b84453cfe57be10d089d08ed9143d08ec5a42
7199c38589388ffcbb588c0d5d2fb10d8c882db029dd2d76e8c36949e81606da65fadab006340c164d274e3a229b84453cfe57be10d089d08ed9143d08ec5a42
dfbc39ab039e2d7b0c68c77791aad7d7314f3e5b34dec57f024f3946e80f409dd6a5496af32808be8b4213825904c64264f8671837a8649455cdc814a65b356a
4e776fa73a85d3b20fb900f3e8f526b3314f3e5b34dec57f024f3946e80f409dd6a5496af32808be8b4213825904c64264f8671837a8649455cdc814a65b356a
3548f0811d3be8c5790bf11887d28095ed6216ca81770432a3f5354aa50b48c988a5334ebdd059e6a231c0d245b6055be06a8a0ecc763c9865e8646b9a8c5023
169d2d86cdf2b0cb924d3d0efc369835583c23f161edb3cd2fb0bac514a79d67ea984136662b09ef9c50c12207624ac430f98fc9e8b58ef5da9b66939fb21ba6
d7c93c343a82f4b81032408b969a0b1e8c882db029dd2d76e8c36949e81606da65fadab006340c164d274e3a229b84453cfe57be10d089d08ed9143d08ec5a42
68c5f0122cff13ed1a48fa2c4908f2708c882db029dd2d76e8c36949e81606da65fadab006340c164d274e3a229b84453cfe57be10d089d08ed9143d08ec5a42
3db4b883eccd391a695b568626e1c938e168fcdb861094435bdbb9330ddbfc27d6a5496af32808be8b4213825904c64264f8671837a8649455cdc814a65b356a
dafe02ec81148cdf04dc707d065be2b9e168fcdb861094435bdbb9330ddbfc27d6a5496af32808be8b4213825904c64264f8671837a8649455cdc814a65b356a
bced6fa6f2c700e880f64f43d04044c492cd4a574d1db6ccec757216990c9940bd92dd7f59b72b668a30e7f33625f3d0e06a8a0ecc763c9865e8646b9a8c5023
b3052e240eb5c35a0a35a6c950f8ef4d1f95a528483490867f781b96c212482f353ffc18e9261f89312827790240ac7e30f98fc9e8b58ef5da9b66939fb21ba6
0a88a9e1cf3b878f47a1baa69c96f2d28c882db029dd2d76e8c36949e81606da65fadab006340c164d274e3a229b84453cfe57be10d089d08ed9143d08ec5a42
768c38fcdbcce42bc93eafb305c25a0c8c6f7e223835c31e3abc4eb0b093af34d6a5496af32808be8b4213825904c64264f8671837a8649455cdc814a65b356a
c44f571cd1023a56647d6dbf9aa23b778c882db029dd2d76e8c36949e81606da65fadab006340c164d274e3a229b84453cfe57be10d089d08ed9143d08ec5a42
af057eb428edc280f89634f48ca0aac80e5caff2e0c8e9d068a858727262d34bd6a5496af32808be8b4213825904c64264f8671837a8649455cdc814a65b356a
743b184e8efe48d912477e4e8107905b8c882db029dd2d76e8c36949e81606da65fadab006340c164d274e3a229b84453cfe57be10d089d08ed9143d08ec5a42
939d719bdd9afc66a095f47e380286690e37dc116684a13990115476eaa257fcd6a5496af32808be8b4213825904c64264f8671837a8649455cdc814a65b356a
f84dcfc7edca4a732dab24724ff0d4608c882db029dd2d76e8c36949e81606da65fadab006340c164d274e3a229b84453cfe57be10d089d08ed9143d08ec5a42
c0035b343024aa8d46fbd14547d7282e8c882db029dd2d76e8c36949e81606da65fadab006340c164d274e3a229b84453cfe57be10d089d08ed9143d08ec5a42
44f53699d5fb670ea46fd0fc5aef6b9519cf52be7b6d7b1183360007be8a742ad6a5496af32808be8b4213825904c64264f8671837a8649455cdc814a65b356a
ec32fedd4d6d83b2c0b2171be248abb219cf52be7b6d7b1183360007be8a742ad6a5496af32808be8b4213825904c64264f8671837a8649455cdc814a65b356a
22047a4cbb8f51988597c2117a4e765ce1ed3134f2e66a92821895ab44010160f76356ba7513545d5681d09eb9ad936c23c1edbf992f5dd983b8121ff64804c0
478f89550feb18a2ddd31156b379c48ce13ae2248e966198b2a78de8fd6ebebf2fa01da8054fe1db4a4f1e8e1f979403e06a8a0ecc763c9865e8646b9a8c5023
ec7ccf4fe72db86d99c7cdd3267735288c882db029dd2d76e8c36949e81606da65fadab006340c164d274e3a229b84453cfe57be10d089d08ed9143d08ec5a42
dfe69c8873413a5ada75f03fef2809f976562b85027a391e0fe8015f769ed89fd6a5496af32808be8b4213825904c64264f8671837a8649455cdc814a65b356a
4f73267708c91b25e1c8e61def269c158c882db029dd2d76e8c36949e81606da65fadab006340c164d274e3a229b84453cfe57be10d089d08ed9143d08ec5a42
11d1ab8017d34bb003d5e3311cddbafd8c882db029dd2d76e8c36949e81606da65fadab006340c164d274e3a229b84453cfe57be10d089d08ed9143d08ec5a42
582d51f00df16f14ec4e37cc2574cd73438295066219f06da63449e265916a98d6a5496af32808be8b4213825904c64264f8671837a8649455cdc814a65b356a
2bdd5dddc3468652a0930a24c405fcfe438295066219f06da63449e265916a98d6a5496af32808be8b4213825904c64264f8671837a8649455cdc814a65b356a
96e8e61f6c9a5fa0e4eb700a0ba2ba5fccdbc98b7fde3fc87cc3eae383033995eccf8cd6bf7875651f991b2b57d6ad5023c1edbf992f5dd983b8121ff64804c0
a4351dca01b61b2a06f26ae3f34531120d2239fd6dc0ef0a35154bdfef9be5d102c1f6f9f15cf38d1bff41a5938ebc2fe06a8a0ecc763c9865e8646b9a8c5023
2ddaf96e4678e34bd66cbaa7883126a18c882db029dd2d76e8c36949e81606da65fadab006340c164d274e3a229b84453cfe57be10d089d08ed9143d08ec5a42
270b10a2b66bfd70603e8b04315eda5d8c882db029dd2d76e8c36949e81606da65fadab006340c164d274e3a229b84453cfe57be10d089d08ed9143d08ec5a42
4802219fc9f9c06ae2abbfa46cb3127666fd567f6a282a2db5e8aed2e9ee498bd6a5496af32808be8b4213825904c64264f8671837a8649455cdc814a65b356a
d6c5ab725ac3654d93e965ac66f30e4166fd567f6a282a2db5e8aed2e9ee498bd6a5496af32808be8b4213825904c64264f8671837a8649455cdc814a65b356a
4b5f5106640bb5ada191159498ba4f0a8110bda4b20cc31a516e2f1674b7efd1b110daa25e1ef4893d0c2ce90de33ccc23c1edbf992f5dd983b8121ff64804c0
83a8bf3652f7baf4a5ee29b903bee4094da8a1b6e151ce699f0cf4b3c1648867ca7b259f559419649e0383bb3d0f93aee06a8a0ecc763c9865e8646b9a8c5023
d3649298d357fea00f7e1f131e01cf0c8c882db029dd2d76e8c36949e81606da65fadab006340c164d274e3a229b84453cfe57be10d089d08ed9143d08ec5a42
55d439fdb7f0f617ca65699e200c969165f31759f7d0b446278293e3df6b4eecd6a5496af32808be8b4213825904c64264f8671837a8649455cdc814a65b356a
ad7c6d306a39a8b20ce23780cf1ff71f8c882db029dd2d76e8c36949e81606da65fadab006340c164d274e3a229b84453cfe57be10d089d08ed9143d08ec5a42
dbe639c5000bbc6a0bb93dc4fd540d278c882db029dd2d76e8c36949e81606da65fadab006340c164d274e3a229b84453cfe57be10d089d08ed9143d08ec5a42
32310f27aee641763a3bf8dd364eedc3907e155c7dce8389c80bcf8e24015868d6a5496af32808be8b4213825904c64264f8671837a8649455cdc814a65b356a
eef596b8ef60195410c3c3a7b6b6a770907e155c7dce8389c80bcf8e24015868d6a5496af32808be8b4213825904c64264f8671837a8649455cdc814a65b356a
a786df35b089a7e0ca20a0572a98b8d26edd091f1c2fa2f4635521767b34d88fdd32d2d7068720f70dcab9e8534e7ec530f98fc9e8b58ef5da9b66939fb21ba6
9344360f995f78d9f335af38a0855bb9ff65d6e618e8b4cb2d29848ab8c3244937b606e57b56d9634d88244cc2a49e3dd5fe57336be20364122155de990b3a12
5e1f5b740199103b66d7212eb76b2a858c882db029dd2d76e8c36949e81606da65fadab006340c164d274e3a229b84453cfe57be10d089d08ed9143d08ec5a42
4adef0e41830f814bbb51ab2f143afe32c98edcc436e320b99156dc607a32044ab8c0eadecee6bec94b17904ddacce0565ef5accca45f96839e377318e739be0
93f97282586fbda5fd531e65c81e75768c882db029dd2d76e8c36949e81606da65fadab006340c164d274e3a229b84453cfe57be10d089d08ed9143d08ec5a42
f8a2b6f7b24584fdb948cad864a64f2e8c882db029dd2d76e8c36949e81606da65fadab006340c164d274e3a229b84453cfe57be10d089d08ed9143d08ec5a42
4aa9d43ef7253d2fb7769fbced9e3f58d5c9342cfa2dd9dc2e9701006ea47524d6a5496af32808be8b4213825904c64264f8671837a8649455cdc814a65b356a
50e94fc1962a9c258748d0a7ed9170edd5c9342cfa2dd9dc2e9701006ea47524d6a5496af32808be8b4213825904c64264f8671837a8649455cdc814a65b356a
7c7d11cedf961d30ac2c8b6809b859181ddf0d158fcd10e3e574c637dcfda3c37402a91a87a6b0906bde3a082ee8225be06a8a0ecc763c9865e8646b9a8c5023
28aa99389421d598b3497b80116aa6348601b00c4e0796f40a9c0528a933a5024805bdc09a28a79e72dffdfac755386b30f98fc9e8b58ef5da9b66939fb21ba6
a6dc5af3d01d22eb95c91ea2a39b68ff8c882db029dd2d76e8c36949e81606da65fadab006340c164d274e3a229b84453cfe57be10d089d08ed9143d08ec5a42
c14c43f8de089c7c20366a6f0a5070d68c882db029dd2d76e8c36949e81606da65fadab006340c164d274e3a229b84453cfe57be10d089d08ed9143d08ec5a42
4891d2d7bd795c96bec1b9fa21f02c21552bda41eefec72065a8069a441a851ad6a5496af32808be8b4213825904c64264f8671837a8649455cdc814a65b356a
65fdf27fec607c068a01c71e3c1221f4552bda41eefec72065a8069a441a851ad6a5496af32808be8b4213825904c64264f8671837a8649455cdc814a65b356a
29601714ed7178a2dd84d063c10e685eafd8ded178189897a7253543f0d91939ada44410adc612c8e5cc24fec6f04e4e30f98fc9e8b58ef5da9b66939fb21ba6
23cf939118c4853d740d45b69cf69403f412e899b98a1bda2741f881676bd503133d2f97778413a34219304ef86df8a9d5fe57336be20364122155de990b3a12
e018a4d5e4886a6703bf7a1f2b3391338c882db029dd2d76e8c36949e81606da65fadab006340c164d274e3a229b84453cfe57be10d089d08ed9143d08ec5a42
0272162c58eadaba889cd014cdfb69978c882db029dd2d76e8c36949e81606da65fadab006340c164d274e3a229b84453cfe57be10d089d08ed9143d08ec5a42
d7c0934de694a5fb371c59b29035c2c3314f3e5b34dec57f024f3946e80f409dd6a5496af32808be8b4213825904c64264f8671837a8649455cdc814a65b356a
005be451c4b89340d5b093a596cee68c314f3e5b34dec57f024f3946e80f409dd6a5496af32808be8b4213825904c64264f8671837a8649455cdc814a65b356a
45f2490d29469864871d6ca946e21acaed6216ca81770432a3f5354aa50b48c988a5334ebdd059e6a231c0d245b6055be06a8a0ecc763c9865e8646b9a8c5023
a49e43676a18de752f8ab30ff7f839ce583c23f161edb3cd2fb0bac514a79d67ea984136662b09ef9c50c12207624ac430f98fc9e8b58ef5da9b66939fb21ba6
0c06d90dbe485ffd0884f547506a92bc8c882db029dd2d76e8c36949e81606da65fadab006340c164d274e3a229b84453cfe57be10d089d08ed9143d08ec5a42
816634f7ccc00d584218ef6bde0221328c882db029dd2d76e8c36949e81606da65fadab006340c164d274e3a229b84453cfe57be10d089d08ed9143d08ec5a42
69a91c7a44421d52487c59543a3adf19e168fcdb861094435bdbb9330ddbfc27d6a5496af32808be8b4213825904c64264f8671837a8649455cdc814a65b356a
7cf33100a5380c794a17693e53e6b2ade168fcdb861094435bdbb9330ddbfc27d6a5496af32808be8b4213825904c64264f8671837a8649455cdc814a65b356a
21be6b18eee512301e56baf0bf61a54d92cd4a574d1db6ccec757216990c9940bd92dd7f59b72b668a30e7f33625f3d0e06a8a0ecc763c9865e8646b9a8c5023
2cede1f34049e7074099bdbfbfa896ec1f95a528483490867f781b96c212482f353ffc18e9261f89312827790240ac7e30f98fc9e8b58ef5da9b66939fb21ba6
7f0fc957c99f3a96e55ccd34e315d3ce8c882db029dd2d76e8c36949e81606da65fadab006340c164d274e3a229b84453cfe57be10d089d08ed9143d08ec5a42
00c56aebb006fcfc96203dc0e343e9ab8c6f7e223835c31e3abc4eb0b093af34d6a5496af32808be8b4213825904c64264f8671837a8649455cdc814a65b356a
d559687f413309c97d725369c5de15c58c882db029dd2d76e8c36949e81606da65fadab006340c164d274e3a229b84453cfe57be10d089d08ed9143d08ec5a42
9b5e8469f5ec7b5bafd441506a55830c0e5caff2e0c8e9d068a858727262d34bd6a5496af32808be8b4213825904c64264f8671837a8649455cdc814a65b356a
2d35e952ab3a281700056fefd965036b8c882db029dd2d76e8c36949e81606da65fadab006340c164d274e3a229b84453cfe57be10d089d08ed9143d08ec5a42
a5262f65f830fc441ed15175c89e2f370e37dc116684a13990115476eaa257fcd6a5496af32808be8b4213825904c64264f8671837a8649455cdc814a65b356a
b6ffffac530a512d9120e24aa27c6ddc8c882db029dd2d76e8c36949e81606da65fadab006340c164d274e3a229b84453cfe57be10d089d08ed9143d08ec5a42
364f17730110e3d5522786a8a8150efb8c882db029dd2d76e8c36949e81606da65fadab006340c164d274e3a229b84453cfe57be10d089d08ed9143d08ec5a42
544419010e6ea42d535521eee9babd4b19cf52be7b6d7b1183360007be8a742ad6a5496af32808be8b4213825904c64264f8671837a8649455cdc814a65b356a
a431a7236bd82400172a336965eb39d519cf52be7b6d7b1183360007be8a742ad6a5496af32808be8b4213825904c64264f8671837a8649455cdc814a65b356a
ddc901720796ddc277a5ec8a1fd7b179e1ed3134f2e66a92821895ab44010160f76356ba7513545d5681d09eb9ad936c23c1edbf992f5dd983b8121ff64804c0
96ea6489b643dd760991b832db7b0bc8e13ae2248e966198b2a78de8fd6ebebf2fa01da8054fe1db4a4f1e8e1f979403e06a8a0ecc763c9865e8646b9a8c5023