**************************************************
* Manufacturer:           Würth Elektronik
* Kinds:                  AQ Transformer
* Matchcode:              WE-LAN AQ
* Library Type:           Pspice
* Version:                rev26a
* Created/modified by:    Ella      
* Date and Time:          2026-06-02
* Team:                   eiSos EDA Service  
* Contact:                libraries@we-online.com
**************************************************
* Copyright(C) 2026 Würth Elektronik eiSos GmbH & Co. KG
* All Rights Reserved.
**************************************************
* Disclaimer: While Würth Elektronik eiSos has made every reasonable effort to ensure the accuracy
* of the simulation models provided, Würth Elektronik eiSos does not guarantee the exemption of error on
* the simulation models, nor does Würth Elektronik eiSos guarantee that the simulation model is current.
* Würth Elektronik eiSos reserves the right to make any adjustments at any time without notice.
* Würth Elektronik eiSos expressly disclaims all implied warranties regarding this simulation model.
**************************************************
**$ENCRYPTED_LIB
**$INTERFACE
.subckt 749010310 1 2 3 4 5 6
$CDNENCSTART_ADV2
17f62b1fb318c25603aeb85644ae98a5d179ef807807791f6459efacb9d7ffc37a831b146dc0f06bb1ef275619162e6d8f7ad0dc708bf15ae1a1d5bd0ae623b2
08cd889865a789262e3ad64e69fb170f84da2504fdd2bd37c4ff69835f4afe97f760fda5afa1caab217bdb1015b246a62682261db3fb55011ebe7889f4b5833a
9f6547d8ff96a295f1e6e6ecc27ebd1084da2504fdd2bd37c4ff69835f4afe97f760fda5afa1caab217bdb1015b246a62682261db3fb55011ebe7889f4b5833a
f1b2532c00acb3cf79d01cec3647732684da2504fdd2bd37c4ff69835f4afe97f760fda5afa1caab217bdb1015b246a62682261db3fb55011ebe7889f4b5833a
be2074b04d4c33524e6df1c4e42b5bd784da2504fdd2bd37c4ff69835f4afe97f760fda5afa1caab217bdb1015b246a62682261db3fb55011ebe7889f4b5833a
b6db1296e9baa3a4ec0517a0e0e0585384da2504fdd2bd37c4ff69835f4afe97f760fda5afa1caab217bdb1015b246a62682261db3fb55011ebe7889f4b5833a
35db761382a2a10513a82d976973b4ee84da2504fdd2bd37c4ff69835f4afe97f760fda5afa1caab217bdb1015b246a62682261db3fb55011ebe7889f4b5833a
ec5ec23c93110f648342b9104a33bb7784da2504fdd2bd37c4ff69835f4afe97f760fda5afa1caab217bdb1015b246a62682261db3fb55011ebe7889f4b5833a
017820828fe31027faa33a7660c48c5984da2504fdd2bd37c4ff69835f4afe97f760fda5afa1caab217bdb1015b246a62682261db3fb55011ebe7889f4b5833a
dcf60e45e1771b199921e2c6aadc41afb2a381ff73fa715613c93938fd67d2c874e241f8547f3de7f2f744f417748f381782cd8ee9587ed683573de5b1e4b578
b6d384be47c469a05523bd227cfbbb5db2a381ff73fa715613c93938fd67d2c874e241f8547f3de7f2f744f417748f381782cd8ee9587ed683573de5b1e4b578
c93a1f354edcd4b04ed49f1a71e65748b2a381ff73fa715613c93938fd67d2c874e241f8547f3de7f2f744f417748f381782cd8ee9587ed683573de5b1e4b578
279e15148573dfe5acc63f98471804f8b2a381ff73fa715613c93938fd67d2c874e241f8547f3de7f2f744f417748f381782cd8ee9587ed683573de5b1e4b578

63b7aa7029108033c5b1d8da4645eff052562c425d7c90052364705d1d9be5aea4049861bd4d84252d2acfc43c8f483c995c1750e1325d2d60b6673edcff892c
e31dd812c833e0d1b04fd655c33e8dccb2a381ff73fa715613c93938fd67d2c874e241f8547f3de7f2f744f417748f381782cd8ee9587ed683573de5b1e4b578
94aac10f0c895664e64b4a6ff1168c28f6093c8e690fa0c244b3311b747b0fac0bee340c9dd28d8c71390982401636bfdb8039926277d7ea35f393c7a8b272be
3a59cece0d3f3988f470cab61db520a152562c425d7c90052364705d1d9be5aea4049861bd4d84252d2acfc43c8f483c995c1750e1325d2d60b6673edcff892c
a1d2d2b4455909906ce0b718bc0144c5b2a381ff73fa715613c93938fd67d2c874e241f8547f3de7f2f744f417748f381782cd8ee9587ed683573de5b1e4b578
8cd5fcbe7a770f771aed29b8eb0873baf6093c8e690fa0c244b3311b747b0fac0bee340c9dd28d8c71390982401636bfdb8039926277d7ea35f393c7a8b272be
91c611233076d1cf710b48590ad7c8e952562c425d7c90052364705d1d9be5aea4049861bd4d84252d2acfc43c8f483c995c1750e1325d2d60b6673edcff892c
8ecf1adfba1028eefa455985bfe86be0b2a381ff73fa715613c93938fd67d2c874e241f8547f3de7f2f744f417748f381782cd8ee9587ed683573de5b1e4b578
3e08c38852e91add41d734686c48a4c6f6093c8e690fa0c244b3311b747b0fac0bee340c9dd28d8c71390982401636bfdb8039926277d7ea35f393c7a8b272be
1de48f9ddef4bf2c62ff8ad21d1d83b152562c425d7c90052364705d1d9be5aea4049861bd4d84252d2acfc43c8f483c995c1750e1325d2d60b6673edcff892c
d8c2d63180e804b82e194bb3a9908d81b2a381ff73fa715613c93938fd67d2c874e241f8547f3de7f2f744f417748f381782cd8ee9587ed683573de5b1e4b578
176d4856e2c8bd3317a8b13d65ef03f9f6093c8e690fa0c244b3311b747b0fac0bee340c9dd28d8c71390982401636bfdb8039926277d7ea35f393c7a8b272be
1a75dd0ce67bbb64599f57f30300874452562c425d7c90052364705d1d9be5aea4049861bd4d84252d2acfc43c8f483c995c1750e1325d2d60b6673edcff892c
4d9edf68066291bc022f3ccc6cb040c6b2a381ff73fa715613c93938fd67d2c874e241f8547f3de7f2f744f417748f381782cd8ee9587ed683573de5b1e4b578
ce8b83834219b31438ca25277420adeef6093c8e690fa0c244b3311b747b0fac0bee340c9dd28d8c71390982401636bfdb8039926277d7ea35f393c7a8b272be
40bbd7871f7ce697b5cf594928c3345352562c425d7c90052364705d1d9be5aea4049861bd4d84252d2acfc43c8f483c995c1750e1325d2d60b6673edcff892c
2a2bc220fd7d06ac7759caba265c7853b2a381ff73fa715613c93938fd67d2c874e241f8547f3de7f2f744f417748f381782cd8ee9587ed683573de5b1e4b578
cab9b9b5fbe195f448e97ef87c514c6bf6093c8e690fa0c244b3311b747b0fac0bee340c9dd28d8c71390982401636bfdb8039926277d7ea35f393c7a8b272be

fd3f47e397bdfe93993a194de12c146fa40462d9b637275677c8504cadda47c8752d1f2aaa3a6af21b92c6503b8815eccb16eb9bb0ec672caa4891f0ce95688a
021070f4f5b39e4bc79751c85561825a3549250099ed3580762030b94f1d9740d6c4ae197889b0367fb73cddd13931f95d41de241ae465c750882825b06a3055
b4b249bdba5d72c697ab34eb52837ae3a40462d9b637275677c8504cadda47c8752d1f2aaa3a6af21b92c6503b8815eccb16eb9bb0ec672caa4891f0ce95688a
3f18c133969b524351593e47bc08911e4dc1665fdd571e0b59a50dccfee5a304d6c4ae197889b0367fb73cddd13931f95d41de241ae465c750882825b06a3055
670dfa1ff9549182746febc7f3e2e8a1a40462d9b637275677c8504cadda47c8752d1f2aaa3a6af21b92c6503b8815eccb16eb9bb0ec672caa4891f0ce95688a
cf0123f8a13168400909e3629078c9ed0fc61f3a9853f4fc11d7283a5b2d7683d6c4ae197889b0367fb73cddd13931f95d41de241ae465c750882825b06a3055
14f247d4dda8b01d8c0ce956ac105de6a40462d9b637275677c8504cadda47c8752d1f2aaa3a6af21b92c6503b8815eccb16eb9bb0ec672caa4891f0ce95688a
25736138a30f30dd1328fed7fe3952efa40462d9b637275677c8504cadda47c8752d1f2aaa3a6af21b92c6503b8815eccb16eb9bb0ec672caa4891f0ce95688a
20cc0adcde1c3c23159747556890c1304c639fa008d32a53aaa0617e58a92c36d6c4ae197889b0367fb73cddd13931f95d41de241ae465c750882825b06a3055
15cfbb901115de92775ddcd693162c5e4c639fa008d32a53aaa0617e58a92c36d6c4ae197889b0367fb73cddd13931f95d41de241ae465c750882825b06a3055
95b46c6cb8320a0766b2182c9e94f9153f1e343f53d43e268f925dd91459d45444a4146f9fa70af2bb35da7ecd666fe4e8efaad55f68d768e44b732025d2d9fd
534d7b26de7282863731bd517cc61b077bd35e27be61a9021835fc320523b7728b7b01ef2511f54f5a19fb0bc2093497c6ec753b2ec549a75255c3eb6f1a3351
3c14c05420949055d9726d418399ecb1a40462d9b637275677c8504cadda47c8752d1f2aaa3a6af21b92c6503b8815eccb16eb9bb0ec672caa4891f0ce95688a
d1257311aa49bcbe6d2bcbd2e5a7849032ef81a7586a90e25a0d9d036672c753d6c4ae197889b0367fb73cddd13931f95d41de241ae465c750882825b06a3055
d6d6fa5a48c16f9501c3e7136a567818a40462d9b637275677c8504cadda47c8752d1f2aaa3a6af21b92c6503b8815eccb16eb9bb0ec672caa4891f0ce95688a
4a5a9f06cbc03ed76bf0eea333a460c2a40462d9b637275677c8504cadda47c8752d1f2aaa3a6af21b92c6503b8815eccb16eb9bb0ec672caa4891f0ce95688a
07580fed883f879bc5f24eafd3432d19817cd63a8dc3925330a27f3456282b4bd6c4ae197889b0367fb73cddd13931f95d41de241ae465c750882825b06a3055
2dfd1b022fe5035dd19b7e5fa3f17236817cd63a8dc3925330a27f3456282b4bd6c4ae197889b0367fb73cddd13931f95d41de241ae465c750882825b06a3055
1e443245a6c8236c241014d607bab01d1fbc7da1f9024bf68b16c47913849e6ad6207fee9b1203e03bcf48cb59a5b6e4e8efaad55f68d768e44b732025d2d9fd
2a65377e7a2ab840026d07b43212d215032997b2c54e0d0a86a6633287a40026cd28fd97812281ddf96f818a39f43815c6ec753b2ec549a75255c3eb6f1a3351
4ce51f3d971c348a32481de62d62ce64a40462d9b637275677c8504cadda47c8752d1f2aaa3a6af21b92c6503b8815eccb16eb9bb0ec672caa4891f0ce95688a
f883e9093fc657d01b22ccadeefebb62c3384346aec98bd7052028c1e8e09c71c91a765c6ecb59372dd9bf689b4163cac7704409081936332232b4166eb3b64f
9459ab1e612595140d449b5c378412b1c3845a218c6851c66ff0e6b222f67524d6c4ae197889b0367fb73cddd13931f95d41de241ae465c750882825b06a3055
829699ffcf11e8429b24335e8c884931cc2d44f7ebb39ad49e7ec476fa23b201204c918200f9bbf9aa1a7f42628965df70ea2fe802d8adab7b688f9086eb5521
b00e10bd61d285234f65f65360bbba0890dad41bd5f6b812daa07ad10873b85a3e47d637ee3e1199fa1844b841cbd8cad58915800a20aa210723dcf1cdc90590
0120a6974ad56b3692b8d615b17f6216a5ae37a51e303f488aa6e28764657f723e47d637ee3e1199fa1844b841cbd8cad58915800a20aa210723dcf1cdc90590
77cc3859eee5539389e0417f43523aa8c3384346aec98bd7052028c1e8e09c71c91a765c6ecb59372dd9bf689b4163cac7704409081936332232b4166eb3b64f
a410e0da223cb4bfc7fa27dda963a82b4fbf698a7f14bfde8c41a7fd662ecd2e204c918200f9bbf9aa1a7f42628965df70ea2fe802d8adab7b688f9086eb5521
9aa6e10e19cc7e4514dba6a7c3f64923c3384346aec98bd7052028c1e8e09c71c91a765c6ecb59372dd9bf689b4163cac7704409081936332232b4166eb3b64f
0fd71193efba781d6006da4b471b5ad3c3384346aec98bd7052028c1e8e09c71c91a765c6ecb59372dd9bf689b4163cac7704409081936332232b4166eb3b64f
411742d443eebdda84187187d4c2fc17ad9ea2bf010d9c4a1eddf48dd12578be204c918200f9bbf9aa1a7f42628965df70ea2fe802d8adab7b688f9086eb5521
23702c292eae5fe2ba5936598a180b66ad9ea2bf010d9c4a1eddf48dd12578be204c918200f9bbf9aa1a7f42628965df70ea2fe802d8adab7b688f9086eb5521
87d9cb11c7b2d2567dbfa8983867cfb36edd091f1c2fa2f4635521767b34d88ff85f589fbb1b4371e20fa08bc5ceaac5d58915800a20aa210723dcf1cdc90590
8fa8748cbda168ad3b5571ad19b91e27ff65d6e618e8b4cb2d29848ab8c324490c41598bf5e0afe7a4c9be409732d05ee8efaad55f68d768e44b732025d2d9fd
4aa9bd662eade2f9dc657a896007cdcac3384346aec98bd7052028c1e8e09c71c91a765c6ecb59372dd9bf689b4163cac7704409081936332232b4166eb3b64f
b2f4eb10782ab04fb921eee39ba69676fb598b3886e14a0cb71776d4c33e7ec8c7ff94819819c8f07f102f7f200640e1c1c06d05e5dcc35a7bd45c504741b8c1
a88ed8fdd32f8924890e8c1387301906c3384346aec98bd7052028c1e8e09c71c91a765c6ecb59372dd9bf689b4163cac7704409081936332232b4166eb3b64f
da73de47cb777ff2ad7f6a2a47d8e71ac3384346aec98bd7052028c1e8e09c71c91a765c6ecb59372dd9bf689b4163cac7704409081936332232b4166eb3b64f
1a55033a2d16777810138acf271d09808ba37a7571c1f8ece683428ecaa3416f204c918200f9bbf9aa1a7f42628965df70ea2fe802d8adab7b688f9086eb5521
ca5782ff5110b6bbdb429d7bb491a1488ba37a7571c1f8ece683428ecaa3416f204c918200f9bbf9aa1a7f42628965df70ea2fe802d8adab7b688f9086eb5521
b854a5be7ba91d628ffa0c491015e8bc1ddf0d158fcd10e3e574c637dcfda3c3fb06418f16e55d828c86376543b0a2f56a274f646bd99de31917b2d0c8a4c0ce
e860c02774a511a2d1d2f718794e27948601b00c4e0796f40a9c0528a933a5020ef90634213a3867e6dcab9a7185576ed58915800a20aa210723dcf1cdc90590
4bd183e9e36a27d432bb31e9a2d5ec40c3384346aec98bd7052028c1e8e09c71c91a765c6ecb59372dd9bf689b4163cac7704409081936332232b4166eb3b64f
afa46912bbc27bbea0370a1283311f19c3384346aec98bd7052028c1e8e09c71c91a765c6ecb59372dd9bf689b4163cac7704409081936332232b4166eb3b64f
2843e62b6519036f426cf8fa48fdabb7417e18d6896d05f6ff6a0fdb8fdcb5b0204c918200f9bbf9aa1a7f42628965df70ea2fe802d8adab7b688f9086eb5521
97e1305c0549a8ec253c7d396ac4a5db417e18d6896d05f6ff6a0fdb8fdcb5b0204c918200f9bbf9aa1a7f42628965df70ea2fe802d8adab7b688f9086eb5521
c9a544f26270af4bf03972a27f75f5deafd8ded178189897a7253543f0d9193963fdc97d62c2d51b5bc05315d2d32a0cd58915800a20aa210723dcf1cdc90590
83eac7cbe6d5605e66ad4d3ed47cdb1af412e899b98a1bda2741f881676bd503f65b0eb63373e4007a36934ae115cedee8efaad55f68d768e44b732025d2d9fd
295eb6c1bdfd8061cd6eaa45e8215ad6c3384346aec98bd7052028c1e8e09c71c91a765c6ecb59372dd9bf689b4163cac7704409081936332232b4166eb3b64f
61789de81dd1a1df5f4610384fcabc3bc3384346aec98bd7052028c1e8e09c71c91a765c6ecb59372dd9bf689b4163cac7704409081936332232b4166eb3b64f
20bcbb99a01edca1ec011f22f6e94883ef52e6a6e2e29eafd90f716f35bd4693204c918200f9bbf9aa1a7f42628965df70ea2fe802d8adab7b688f9086eb5521
09b3ada96af46da4f440a88a93d73350ef52e6a6e2e29eafd90f716f35bd4693204c918200f9bbf9aa1a7f42628965df70ea2fe802d8adab7b688f9086eb5521
30b9c3a29b5629303c7de51caa9e6fe7ed6216ca81770432a3f5354aa50b48c9fd891cf458308abd5f08dab5f8f50b3c6a274f646bd99de31917b2d0c8a4c0ce
acdd755d3e55d8bda1f105c9a5ee35fe583c23f161edb3cd2fb0bac514a79d67a9917b96fe0c9aba373207b466268176d58915800a20aa210723dcf1cdc90590
a249bb0d25ec739a016f3c6c71e13f22c3384346aec98bd7052028c1e8e09c71c91a765c6ecb59372dd9bf689b4163cac7704409081936332232b4166eb3b64f
f0e3eb61bf1d95a401338b75fa76bfffc3384346aec98bd7052028c1e8e09c71c91a765c6ecb59372dd9bf689b4163cac7704409081936332232b4166eb3b64f
5cb238f2b2e8484ce4a340b946ebbb9336e588593ff862439f0cbbde97181340204c918200f9bbf9aa1a7f42628965df70ea2fe802d8adab7b688f9086eb5521
4ed81850ef50d2f88a87e290bfb6b72736e588593ff862439f0cbbde97181340204c918200f9bbf9aa1a7f42628965df70ea2fe802d8adab7b688f9086eb5521
701d43e51efc4ad33d839ea4457ed09e92cd4a574d1db6ccec757216990c994020aa1c79c9b0d71193855e7150eec1e76a274f646bd99de31917b2d0c8a4c0ce
9c942971b9a780af595865531fb361e71f95a528483490867f781b96c212482fb0a62eec8fe6ea66a3e1cab427be6772d58915800a20aa210723dcf1cdc90590
015199ca07eff7d1fc72553cd3d35fd8c3384346aec98bd7052028c1e8e09c71c91a765c6ecb59372dd9bf689b4163cac7704409081936332232b4166eb3b64f
f81bcbce1eb5bbeac0918a398aa882dd546869b96f2a6f9bf42c57b23a4ecc88204c918200f9bbf9aa1a7f42628965df70ea2fe802d8adab7b688f9086eb5521
9edcfd04e904880f01fbea799842325cc3384346aec98bd7052028c1e8e09c71c91a765c6ecb59372dd9bf689b4163cac7704409081936332232b4166eb3b64f
d7795db7bc982febd9862caf4d7b0f57b889053b6cc18a82c2f9e3734f15f9dd204c918200f9bbf9aa1a7f42628965df70ea2fe802d8adab7b688f9086eb5521
cef75906c9b283034a821ac459d94408c3384346aec98bd7052028c1e8e09c71c91a765c6ecb59372dd9bf689b4163cac7704409081936332232b4166eb3b64f
fba2b07d752c71114fef19a33b27308151c35ae4b0170d4bed0d83dfb1f7993a204c918200f9bbf9aa1a7f42628965df70ea2fe802d8adab7b688f9086eb5521
2ce6093db945d322bffab33178794e2fc3384346aec98bd7052028c1e8e09c71c91a765c6ecb59372dd9bf689b4163cac7704409081936332232b4166eb3b64f
6f3c3929ac4194448670d12431467774c3384346aec98bd7052028c1e8e09c71c91a765c6ecb59372dd9bf689b4163cac7704409081936332232b4166eb3b64f
5babf08a5027d3f72729bb95ff8cce34d78fe137cee1b2e2942acb39be6a2219204c918200f9bbf9aa1a7f42628965df70ea2fe802d8adab7b688f9086eb5521
1ed180f28185334fa8a9b0ab62b6ab3cd78fe137cee1b2e2942acb39be6a2219204c918200f9bbf9aa1a7f42628965df70ea2fe802d8adab7b688f9086eb5521
5734ad86dc4ab3d9e9e7ff5a237476e0e1ed3134f2e66a92821895ab44010160836251bbce32dc88f37fa2d576f3b49a2d086c64c6675ccca09cafbfd5970d75
439c8d7a334532c2d2f482913a63335ae13ae2248e966198b2a78de8fd6ebebf7f625684b240aceacd2803de97f2f6416a274f646bd99de31917b2d0c8a4c0ce
ccd75920cedf6f7699af4a57901434ebc3384346aec98bd7052028c1e8e09c71c91a765c6ecb59372dd9bf689b4163cac7704409081936332232b4166eb3b64f
d6abd5096d3deeb3502676790390c3129728d378b6039dd94bb754595b870262204c918200f9bbf9aa1a7f42628965df70ea2fe802d8adab7b688f9086eb5521
c9775f933945d3f5418acf83c9c5a80bc3384346aec98bd7052028c1e8e09c71c91a765c6ecb59372dd9bf689b4163cac7704409081936332232b4166eb3b64f
0457864f36ec80f5960a7dbeb1b78e6bc3384346aec98bd7052028c1e8e09c71c91a765c6ecb59372dd9bf689b4163cac7704409081936332232b4166eb3b64f
dd0ad01d8a5c2142b34664d405d51c263aa6c906adb5d7a5fd9340f88987bc91204c918200f9bbf9aa1a7f42628965df70ea2fe802d8adab7b688f9086eb5521
48e364bed3fbc9d3e27807ed40b47e2b3aa6c906adb5d7a5fd9340f88987bc91204c918200f9bbf9aa1a7f42628965df70ea2fe802d8adab7b688f9086eb5521
37696b08e385aea6cd25812b2321df00ccdbc98b7fde3fc87cc3eae383033995e54a4cb7698334442f705b5ae794d32c2d086c64c6675ccca09cafbfd5970d75
0764e70414730f5d0c61e42a6e99873b0d2239fd6dc0ef0a35154bdfef9be5d105842790ea9552d5fa04dbf589c776aa6a274f646bd99de31917b2d0c8a4c0ce
f67bd2801c365b8d6c644768fc0aae35c3384346aec98bd7052028c1e8e09c71c91a765c6ecb59372dd9bf689b4163cac7704409081936332232b4166eb3b64f
d5ca6e12b7c41c989abe83663bed5c5ec3384346aec98bd7052028c1e8e09c71c91a765c6ecb59372dd9bf689b4163cac7704409081936332232b4166eb3b64f
5724490453acc111a5409204a655737fcc2d44f7ebb39ad49e7ec476fa23b201204c918200f9bbf9aa1a7f42628965df70ea2fe802d8adab7b688f9086eb5521
d5ead7bb7f307baa8d7db17df82efccecc2d44f7ebb39ad49e7ec476fa23b201204c918200f9bbf9aa1a7f42628965df70ea2fe802d8adab7b688f9086eb5521
ad4397f07792d67861da379196e240ee8110bda4b20cc31a516e2f1674b7efd139eaf073f78f587d56307f52723730702d086c64c6675ccca09cafbfd5970d75
e55593297615c6b59a4c567f0d7b3d934da8a1b6e151ce699f0cf4b3c1648867aaf38cc73d097d49f822341c27de0e0b6a274f646bd99de31917b2d0c8a4c0ce
f19665046fb8c358b036fabe3b66a783c3384346aec98bd7052028c1e8e09c71c91a765c6ecb59372dd9bf689b4163cac7704409081936332232b4166eb3b64f
9615b03da5b101ac288c2fcfecd079134fbf698a7f14bfde8c41a7fd662ecd2e204c918200f9bbf9aa1a7f42628965df70ea2fe802d8adab7b688f9086eb5521
5c1f1742c87a20d055c712618505877bc3384346aec98bd7052028c1e8e09c71c91a765c6ecb59372dd9bf689b4163cac7704409081936332232b4166eb3b64f
05c500ad37ae0972b0cc5bbf8a98cfbfc3384346aec98bd7052028c1e8e09c71c91a765c6ecb59372dd9bf689b4163cac7704409081936332232b4166eb3b64f
42e7cd5083136a4c90eb3b5e16fb70ccad9ea2bf010d9c4a1eddf48dd12578be204c918200f9bbf9aa1a7f42628965df70ea2fe802d8adab7b688f9086eb5521
508c5d6f85102b83b0a4e45d0a1364a3ad9ea2bf010d9c4a1eddf48dd12578be204c918200f9bbf9aa1a7f42628965df70ea2fe802d8adab7b688f9086eb5521
f65ed3d7561d4f9635243ec2fe6f84486edd091f1c2fa2f4635521767b34d88ff85f589fbb1b4371e20fa08bc5ceaac5d58915800a20aa210723dcf1cdc90590
a1d289d01376eab71187566669727fc1ff65d6e618e8b4cb2d29848ab8c324490c41598bf5e0afe7a4c9be409732d05ee8efaad55f68d768e44b732025d2d9fd
b7873db39d297b6e64f4b140fbc6e8d7c3384346aec98bd7052028c1e8e09c71c91a765c6ecb59372dd9bf689b4163cac7704409081936332232b4166eb3b64f
59793672d0b59dab6d34caffea5e9c6ffb598b3886e14a0cb71776d4c33e7ec8c7ff94819819c8f07f102f7f200640e1c1c06d05e5dcc35a7bd45c504741b8c1
9f8e70bd1da22279e3a71083fbc46b4dc3384346aec98bd7052028c1e8e09c71c91a765c6ecb59372dd9bf689b4163cac7704409081936332232b4166eb3b64f
7cd925c66386a1fa66649ad22672ba47c3384346aec98bd7052028c1e8e09c71c91a765c6ecb59372dd9bf689b4163cac7704409081936332232b4166eb3b64f
3ed138821062e64da9dfd42354fa617a8ba37a7571c1f8ece683428ecaa3416f204c918200f9bbf9aa1a7f42628965df70ea2fe802d8adab7b688f9086eb5521
cfdf5ecd4cb8802bc9a9b7c1528d27148ba37a7571c1f8ece683428ecaa3416f204c918200f9bbf9aa1a7f42628965df70ea2fe802d8adab7b688f9086eb5521
6a1e38a94eab2de19723f333d032ca311ddf0d158fcd10e3e574c637dcfda3c3fb06418f16e55d828c86376543b0a2f56a274f646bd99de31917b2d0c8a4c0ce
ef2654d4987d5851635bbe5268ba54978601b00c4e0796f40a9c0528a933a5020ef90634213a3867e6dcab9a7185576ed58915800a20aa210723dcf1cdc90590
91f8bf25aa856ebea94c07bc0d7d47ebc3384346aec98bd7052028c1e8e09c71c91a765c6ecb59372dd9bf689b4163cac7704409081936332232b4166eb3b64f
87875c137ab736a7a42bd30ba88ac640c3384346aec98bd7052028c1e8e09c71c91a765c6ecb59372dd9bf689b4163cac7704409081936332232b4166eb3b64f
90e6b7ffbc23b0c7dda417dfac58c7a5417e18d6896d05f6ff6a0fdb8fdcb5b0204c918200f9bbf9aa1a7f42628965df70ea2fe802d8adab7b688f9086eb5521
22e4daedb18462abdb7d39304b8d6d99417e18d6896d05f6ff6a0fdb8fdcb5b0204c918200f9bbf9aa1a7f42628965df70ea2fe802d8adab7b688f9086eb5521
1c3e0216967c8f44e61069dd5b03b8f2afd8ded178189897a7253543f0d9193963fdc97d62c2d51b5bc05315d2d32a0cd58915800a20aa210723dcf1cdc90590
38d922d15df036f3973943d9d1d31470f412e899b98a1bda2741f881676bd503f65b0eb63373e4007a36934ae115cedee8efaad55f68d768e44b732025d2d9fd
507352debe493a71e3d614784b76d037c3384346aec98bd7052028c1e8e09c71c91a765c6ecb59372dd9bf689b4163cac7704409081936332232b4166eb3b64f
7199c38589388ffcbb588c0d5d2fb10dc3384346aec98bd7052028c1e8e09c71c91a765c6ecb59372dd9bf689b4163cac7704409081936332232b4166eb3b64f
dfbc39ab039e2d7b0c68c77791aad7d7ef52e6a6e2e29eafd90f716f35bd4693204c918200f9bbf9aa1a7f42628965df70ea2fe802d8adab7b688f9086eb5521
4e776fa73a85d3b20fb900f3e8f526b3ef52e6a6e2e29eafd90f716f35bd4693204c918200f9bbf9aa1a7f42628965df70ea2fe802d8adab7b688f9086eb5521
3548f0811d3be8c5790bf11887d28095ed6216ca81770432a3f5354aa50b48c9fd891cf458308abd5f08dab5f8f50b3c6a274f646bd99de31917b2d0c8a4c0ce
169d2d86cdf2b0cb924d3d0efc369835583c23f161edb3cd2fb0bac514a79d67a9917b96fe0c9aba373207b466268176d58915800a20aa210723dcf1cdc90590
d7c93c343a82f4b81032408b969a0b1ec3384346aec98bd7052028c1e8e09c71c91a765c6ecb59372dd9bf689b4163cac7704409081936332232b4166eb3b64f
68c5f0122cff13ed1a48fa2c4908f270c3384346aec98bd7052028c1e8e09c71c91a765c6ecb59372dd9bf689b4163cac7704409081936332232b4166eb3b64f
3db4b883eccd391a695b568626e1c93836e588593ff862439f0cbbde97181340204c918200f9bbf9aa1a7f42628965df70ea2fe802d8adab7b688f9086eb5521
dafe02ec81148cdf04dc707d065be2b936e588593ff862439f0cbbde97181340204c918200f9bbf9aa1a7f42628965df70ea2fe802d8adab7b688f9086eb5521
bced6fa6f2c700e880f64f43d04044c492cd4a574d1db6ccec757216990c994020aa1c79c9b0d71193855e7150eec1e76a274f646bd99de31917b2d0c8a4c0ce
b3052e240eb5c35a0a35a6c950f8ef4d1f95a528483490867f781b96c212482fb0a62eec8fe6ea66a3e1cab427be6772d58915800a20aa210723dcf1cdc90590
0a88a9e1cf3b878f47a1baa69c96f2d2c3384346aec98bd7052028c1e8e09c71c91a765c6ecb59372dd9bf689b4163cac7704409081936332232b4166eb3b64f
768c38fcdbcce42bc93eafb305c25a0c546869b96f2a6f9bf42c57b23a4ecc88204c918200f9bbf9aa1a7f42628965df70ea2fe802d8adab7b688f9086eb5521
c44f571cd1023a56647d6dbf9aa23b77c3384346aec98bd7052028c1e8e09c71c91a765c6ecb59372dd9bf689b4163cac7704409081936332232b4166eb3b64f
af057eb428edc280f89634f48ca0aac8b889053b6cc18a82c2f9e3734f15f9dd204c918200f9bbf9aa1a7f42628965df70ea2fe802d8adab7b688f9086eb5521
743b184e8efe48d912477e4e8107905bc3384346aec98bd7052028c1e8e09c71c91a765c6ecb59372dd9bf689b4163cac7704409081936332232b4166eb3b64f
939d719bdd9afc66a095f47e3802866951c35ae4b0170d4bed0d83dfb1f7993a204c918200f9bbf9aa1a7f42628965df70ea2fe802d8adab7b688f9086eb5521
f84dcfc7edca4a732dab24724ff0d460c3384346aec98bd7052028c1e8e09c71c91a765c6ecb59372dd9bf689b4163cac7704409081936332232b4166eb3b64f
c0035b343024aa8d46fbd14547d7282ec3384346aec98bd7052028c1e8e09c71c91a765c6ecb59372dd9bf689b4163cac7704409081936332232b4166eb3b64f
44f53699d5fb670ea46fd0fc5aef6b95d78fe137cee1b2e2942acb39be6a2219204c918200f9bbf9aa1a7f42628965df70ea2fe802d8adab7b688f9086eb5521
ec32fedd4d6d83b2c0b2171be248abb2d78fe137cee1b2e2942acb39be6a2219204c918200f9bbf9aa1a7f42628965df70ea2fe802d8adab7b688f9086eb5521
22047a4cbb8f51988597c2117a4e765ce1ed3134f2e66a92821895ab44010160836251bbce32dc88f37fa2d576f3b49a2d086c64c6675ccca09cafbfd5970d75
478f89550feb18a2ddd31156b379c48ce13ae2248e966198b2a78de8fd6ebebf7f625684b240aceacd2803de97f2f6416a274f646bd99de31917b2d0c8a4c0ce
ec7ccf4fe72db86d99c7cdd326773528c3384346aec98bd7052028c1e8e09c71c91a765c6ecb59372dd9bf689b4163cac7704409081936332232b4166eb3b64f
dfe69c8873413a5ada75f03fef2809f99728d378b6039dd94bb754595b870262204c918200f9bbf9aa1a7f42628965df70ea2fe802d8adab7b688f9086eb5521
4f73267708c91b25e1c8e61def269c15c3384346aec98bd7052028c1e8e09c71c91a765c6ecb59372dd9bf689b4163cac7704409081936332232b4166eb3b64f
11d1ab8017d34bb003d5e3311cddbafdc3384346aec98bd7052028c1e8e09c71c91a765c6ecb59372dd9bf689b4163cac7704409081936332232b4166eb3b64f
582d51f00df16f14ec4e37cc2574cd733aa6c906adb5d7a5fd9340f88987bc91204c918200f9bbf9aa1a7f42628965df70ea2fe802d8adab7b688f9086eb5521
2bdd5dddc3468652a0930a24c405fcfe3aa6c906adb5d7a5fd9340f88987bc91204c918200f9bbf9aa1a7f42628965df70ea2fe802d8adab7b688f9086eb5521
96e8e61f6c9a5fa0e4eb700a0ba2ba5fccdbc98b7fde3fc87cc3eae383033995e54a4cb7698334442f705b5ae794d32c2d086c64c6675ccca09cafbfd5970d75
a4351dca01b61b2a06f26ae3f34531120d2239fd6dc0ef0a35154bdfef9be5d105842790ea9552d5fa04dbf589c776aa6a274f646bd99de31917b2d0c8a4c0ce
2ddaf96e4678e34bd66cbaa7883126a1c3384346aec98bd7052028c1e8e09c71c91a765c6ecb59372dd9bf689b4163cac7704409081936332232b4166eb3b64f
270b10a2b66bfd70603e8b04315eda5dc3384346aec98bd7052028c1e8e09c71c91a765c6ecb59372dd9bf689b4163cac7704409081936332232b4166eb3b64f
4802219fc9f9c06ae2abbfa46cb31276cc2d44f7ebb39ad49e7ec476fa23b201204c918200f9bbf9aa1a7f42628965df70ea2fe802d8adab7b688f9086eb5521
d6c5ab725ac3654d93e965ac66f30e41cc2d44f7ebb39ad49e7ec476fa23b201204c918200f9bbf9aa1a7f42628965df70ea2fe802d8adab7b688f9086eb5521
4b5f5106640bb5ada191159498ba4f0a8110bda4b20cc31a516e2f1674b7efd139eaf073f78f587d56307f52723730702d086c64c6675ccca09cafbfd5970d75
83a8bf3652f7baf4a5ee29b903bee4094da8a1b6e151ce699f0cf4b3c1648867aaf38cc73d097d49f822341c27de0e0b6a274f646bd99de31917b2d0c8a4c0ce
d3649298d357fea00f7e1f131e01cf0cc3384346aec98bd7052028c1e8e09c71c91a765c6ecb59372dd9bf689b4163cac7704409081936332232b4166eb3b64f
55d439fdb7f0f617ca65699e200c96914fbf698a7f14bfde8c41a7fd662ecd2e204c918200f9bbf9aa1a7f42628965df70ea2fe802d8adab7b688f9086eb5521
ad7c6d306a39a8b20ce23780cf1ff71fc3384346aec98bd7052028c1e8e09c71c91a765c6ecb59372dd9bf689b4163cac7704409081936332232b4166eb3b64f
dbe639c5000bbc6a0bb93dc4fd540d27c3384346aec98bd7052028c1e8e09c71c91a765c6ecb59372dd9bf689b4163cac7704409081936332232b4166eb3b64f
32310f27aee641763a3bf8dd364eedc3ad9ea2bf010d9c4a1eddf48dd12578be204c918200f9bbf9aa1a7f42628965df70ea2fe802d8adab7b688f9086eb5521
eef596b8ef60195410c3c3a7b6b6a770ad9ea2bf010d9c4a1eddf48dd12578be204c918200f9bbf9aa1a7f42628965df70ea2fe802d8adab7b688f9086eb5521
a786df35b089a7e0ca20a0572a98b8d26edd091f1c2fa2f4635521767b34d88ff85f589fbb1b4371e20fa08bc5ceaac5d58915800a20aa210723dcf1cdc90590
9344360f995f78d9f335af38a0855bb9ff65d6e618e8b4cb2d29848ab8c324490c41598bf5e0afe7a4c9be409732d05ee8efaad55f68d768e44b732025d2d9fd
5e1f5b740199103b66d7212eb76b2a85c3384346aec98bd7052028c1e8e09c71c91a765c6ecb59372dd9bf689b4163cac7704409081936332232b4166eb3b64f
4adef0e41830f814bbb51ab2f143afe3fb598b3886e14a0cb71776d4c33e7ec8c7ff94819819c8f07f102f7f200640e1c1c06d05e5dcc35a7bd45c504741b8c1
93f97282586fbda5fd531e65c81e7576c3384346aec98bd7052028c1e8e09c71c91a765c6ecb59372dd9bf689b4163cac7704409081936332232b4166eb3b64f
f8a2b6f7b24584fdb948cad864a64f2ec3384346aec98bd7052028c1e8e09c71c91a765c6ecb59372dd9bf689b4163cac7704409081936332232b4166eb3b64f
4aa9d43ef7253d2fb7769fbced9e3f588ba37a7571c1f8ece683428ecaa3416f204c918200f9bbf9aa1a7f42628965df70ea2fe802d8adab7b688f9086eb5521
50e94fc1962a9c258748d0a7ed9170ed8ba37a7571c1f8ece683428ecaa3416f204c918200f9bbf9aa1a7f42628965df70ea2fe802d8adab7b688f9086eb5521
7c7d11cedf961d30ac2c8b6809b859181ddf0d158fcd10e3e574c637dcfda3c3fb06418f16e55d828c86376543b0a2f56a274f646bd99de31917b2d0c8a4c0ce
28aa99389421d598b3497b80116aa6348601b00c4e0796f40a9c0528a933a5020ef90634213a3867e6dcab9a7185576ed58915800a20aa210723dcf1cdc90590
a6dc5af3d01d22eb95c91ea2a39b68ffc3384346aec98bd7052028c1e8e09c71c91a765c6ecb59372dd9bf689b4163cac7704409081936332232b4166eb3b64f
c14c43f8de089c7c20366a6f0a5070d6c3384346aec98bd7052028c1e8e09c71c91a765c6ecb59372dd9bf689b4163cac7704409081936332232b4166eb3b64f
4891d2d7bd795c96bec1b9fa21f02c21417e18d6896d05f6ff6a0fdb8fdcb5b0204c918200f9bbf9aa1a7f42628965df70ea2fe802d8adab7b688f9086eb5521
65fdf27fec607c068a01c71e3c1221f4417e18d6896d05f6ff6a0fdb8fdcb5b0204c918200f9bbf9aa1a7f42628965df70ea2fe802d8adab7b688f9086eb5521
29601714ed7178a2dd84d063c10e685eafd8ded178189897a7253543f0d9193963fdc97d62c2d51b5bc05315d2d32a0cd58915800a20aa210723dcf1cdc90590
23cf939118c4853d740d45b69cf69403f412e899b98a1bda2741f881676bd503f65b0eb63373e4007a36934ae115cedee8efaad55f68d768e44b732025d2d9fd
e018a4d5e4886a6703bf7a1f2b339133c3384346aec98bd7052028c1e8e09c71c91a765c6ecb59372dd9bf689b4163cac7704409081936332232b4166eb3b64f
0272162c58eadaba889cd014cdfb6997c3384346aec98bd7052028c1e8e09c71c91a765c6ecb59372dd9bf689b4163cac7704409081936332232b4166eb3b64f
d7c0934de694a5fb371c59b29035c2c3ef52e6a6e2e29eafd90f716f35bd4693204c918200f9bbf9aa1a7f42628965df70ea2fe802d8adab7b688f9086eb5521
005be451c4b89340d5b093a596cee68cef52e6a6e2e29eafd90f716f35bd4693204c918200f9bbf9aa1a7f42628965df70ea2fe802d8adab7b688f9086eb5521
45f2490d29469864871d6ca946e21acaed6216ca81770432a3f5354aa50b48c9fd891cf458308abd5f08dab5f8f50b3c6a274f646bd99de31917b2d0c8a4c0ce
a49e43676a18de752f8ab30ff7f839ce583c23f161edb3cd2fb0bac514a79d67a9917b96fe0c9aba373207b466268176d58915800a20aa210723dcf1cdc90590
0c06d90dbe485ffd0884f547506a92bcc3384346aec98bd7052028c1e8e09c71c91a765c6ecb59372dd9bf689b4163cac7704409081936332232b4166eb3b64f
816634f7ccc00d584218ef6bde022132c3384346aec98bd7052028c1e8e09c71c91a765c6ecb59372dd9bf689b4163cac7704409081936332232b4166eb3b64f
69a91c7a44421d52487c59543a3adf1936e588593ff862439f0cbbde97181340204c918200f9bbf9aa1a7f42628965df70ea2fe802d8adab7b688f9086eb5521
7cf33100a5380c794a17693e53e6b2ad36e588593ff862439f0cbbde97181340204c918200f9bbf9aa1a7f42628965df70ea2fe802d8adab7b688f9086eb5521
21be6b18eee512301e56baf0bf61a54d92cd4a574d1db6ccec757216990c994020aa1c79c9b0d71193855e7150eec1e76a274f646bd99de31917b2d0c8a4c0ce
2cede1f34049e7074099bdbfbfa896ec1f95a528483490867f781b96c212482fb0a62eec8fe6ea66a3e1cab427be6772d58915800a20aa210723dcf1cdc90590
7f0fc957c99f3a96e55ccd34e315d3cec3384346aec98bd7052028c1e8e09c71c91a765c6ecb59372dd9bf689b4163cac7704409081936332232b4166eb3b64f
00c56aebb006fcfc96203dc0e343e9ab546869b96f2a6f9bf42c57b23a4ecc88204c918200f9bbf9aa1a7f42628965df70ea2fe802d8adab7b688f9086eb5521
d559687f413309c97d725369c5de15c5c3384346aec98bd7052028c1e8e09c71c91a765c6ecb59372dd9bf689b4163cac7704409081936332232b4166eb3b64f
9b5e8469f5ec7b5bafd441506a55830cb889053b6cc18a82c2f9e3734f15f9dd204c918200f9bbf9aa1a7f42628965df70ea2fe802d8adab7b688f9086eb5521
2d35e952ab3a281700056fefd965036bc3384346aec98bd7052028c1e8e09c71c91a765c6ecb59372dd9bf689b4163cac7704409081936332232b4166eb3b64f
a5262f65f830fc441ed15175c89e2f3751c35ae4b0170d4bed0d83dfb1f7993a204c918200f9bbf9aa1a7f42628965df70ea2fe802d8adab7b688f9086eb5521
b6ffffac530a512d9120e24aa27c6ddcc3384346aec98bd7052028c1e8e09c71c91a765c6ecb59372dd9bf689b4163cac7704409081936332232b4166eb3b64f
364f17730110e3d5522786a8a8150efbc3384346aec98bd7052028c1e8e09c71c91a765c6ecb59372dd9bf689b4163cac7704409081936332232b4166eb3b64f
544419010e6ea42d535521eee9babd4bd78fe137cee1b2e2942acb39be6a2219204c918200f9bbf9aa1a7f42628965df70ea2fe802d8adab7b688f9086eb5521
a431a7236bd82400172a336965eb39d5d78fe137cee1b2e2942acb39be6a2219204c918200f9bbf9aa1a7f42628965df70ea2fe802d8adab7b688f9086eb5521
ddc901720796ddc277a5ec8a1fd7b179e1ed3134f2e66a92821895ab44010160836251bbce32dc88f37fa2d576f3b49a2d086c64c6675ccca09cafbfd5970d75
96ea6489b643dd760991b832db7b0bc8e13ae2248e966198b2a78de8fd6ebebf7f625684b240aceacd2803de97f2f6416a274f646bd99de31917b2d0c8a4c0ce