**$ENCRYPTED_LIB
**$INTERFACE
.subckt 749050010A 2 1 3 4 6 5
$CDNENCSTART_ADV2
17f62b1fb318c25603aeb85644ae98a5d179ef807807791f6459efacb9d7ffc37a831b146dc0f06bb1ef275619162e6d8f7ad0dc708bf15ae1a1d5bd0ae623b2
08cd889865a789262e3ad64e69fb170f2c9e24f1bf921dfd847fdb3e6ae117ca45be0101f978a5f0142dc552588d083554ddd50e35d0d73da71cae3063279876
9f6547d8ff96a295f1e6e6ecc27ebd102c9e24f1bf921dfd847fdb3e6ae117ca45be0101f978a5f0142dc552588d083554ddd50e35d0d73da71cae3063279876
f1b2532c00acb3cf79d01cec364773262c9e24f1bf921dfd847fdb3e6ae117ca45be0101f978a5f0142dc552588d083554ddd50e35d0d73da71cae3063279876
be2074b04d4c33524e6df1c4e42b5bd72c9e24f1bf921dfd847fdb3e6ae117ca45be0101f978a5f0142dc552588d083554ddd50e35d0d73da71cae3063279876
b6db1296e9baa3a4ec0517a0e0e058532c9e24f1bf921dfd847fdb3e6ae117ca45be0101f978a5f0142dc552588d083554ddd50e35d0d73da71cae3063279876
35db761382a2a10513a82d976973b4ee2c9e24f1bf921dfd847fdb3e6ae117ca45be0101f978a5f0142dc552588d083554ddd50e35d0d73da71cae3063279876
ec5ec23c93110f648342b9104a33bb772c9e24f1bf921dfd847fdb3e6ae117ca45be0101f978a5f0142dc552588d083554ddd50e35d0d73da71cae3063279876
017820828fe31027faa33a7660c48c592c9e24f1bf921dfd847fdb3e6ae117ca45be0101f978a5f0142dc552588d083554ddd50e35d0d73da71cae3063279876
dcf60e45e1771b199921e2c6aadc41af82a9e67dd527af4761e2df37786bc3c94328e2f31e37f98bcfd08a4381889bcf765f7165c076136e0316dd8d45bbd4c6
b6d384be47c469a05523bd227cfbbb5d82a9e67dd527af4761e2df37786bc3c94328e2f31e37f98bcfd08a4381889bcf765f7165c076136e0316dd8d45bbd4c6
c93a1f354edcd4b04ed49f1a71e6574882a9e67dd527af4761e2df37786bc3c94328e2f31e37f98bcfd08a4381889bcf765f7165c076136e0316dd8d45bbd4c6
279e15148573dfe5acc63f98471804f882a9e67dd527af4761e2df37786bc3c94328e2f31e37f98bcfd08a4381889bcf765f7165c076136e0316dd8d45bbd4c6

63b7aa7029108033c5b1d8da4645eff0832c6ed193575dd9387525ca99c7dfebcb30f9dd2e1f23e20f19bfb55e2ecc29a64f444210c7fac32d813aacd1062c95
e31dd812c833e0d1b04fd655c33e8dcc82a9e67dd527af4761e2df37786bc3c94328e2f31e37f98bcfd08a4381889bcf765f7165c076136e0316dd8d45bbd4c6
94aac10f0c895664e64b4a6ff1168c28d27d1849145025a2bc6d5320bf85425ae9a2e11709790a7272ea06970a60ac6ea66ab421715b3c187bd004714c7ea92e
3a59cece0d3f3988f470cab61db520a1832c6ed193575dd9387525ca99c7dfebcb30f9dd2e1f23e20f19bfb55e2ecc29a64f444210c7fac32d813aacd1062c95
a1d2d2b4455909906ce0b718bc0144c582a9e67dd527af4761e2df37786bc3c94328e2f31e37f98bcfd08a4381889bcf765f7165c076136e0316dd8d45bbd4c6
8cd5fcbe7a770f771aed29b8eb0873bad27d1849145025a2bc6d5320bf85425ae9a2e11709790a7272ea06970a60ac6ea66ab421715b3c187bd004714c7ea92e
91c611233076d1cf710b48590ad7c8e9832c6ed193575dd9387525ca99c7dfebcb30f9dd2e1f23e20f19bfb55e2ecc29a64f444210c7fac32d813aacd1062c95
8ecf1adfba1028eefa455985bfe86be082a9e67dd527af4761e2df37786bc3c94328e2f31e37f98bcfd08a4381889bcf765f7165c076136e0316dd8d45bbd4c6
3e08c38852e91add41d734686c48a4c6d27d1849145025a2bc6d5320bf85425ae9a2e11709790a7272ea06970a60ac6ea66ab421715b3c187bd004714c7ea92e
1de48f9ddef4bf2c62ff8ad21d1d83b1832c6ed193575dd9387525ca99c7dfebcb30f9dd2e1f23e20f19bfb55e2ecc29a64f444210c7fac32d813aacd1062c95
d8c2d63180e804b82e194bb3a9908d8182a9e67dd527af4761e2df37786bc3c94328e2f31e37f98bcfd08a4381889bcf765f7165c076136e0316dd8d45bbd4c6
176d4856e2c8bd3317a8b13d65ef03f9d27d1849145025a2bc6d5320bf85425ae9a2e11709790a7272ea06970a60ac6ea66ab421715b3c187bd004714c7ea92e
1a75dd0ce67bbb64599f57f303008744832c6ed193575dd9387525ca99c7dfebcb30f9dd2e1f23e20f19bfb55e2ecc29a64f444210c7fac32d813aacd1062c95
4d9edf68066291bc022f3ccc6cb040c682a9e67dd527af4761e2df37786bc3c94328e2f31e37f98bcfd08a4381889bcf765f7165c076136e0316dd8d45bbd4c6
ce8b83834219b31438ca25277420adeed27d1849145025a2bc6d5320bf85425ae9a2e11709790a7272ea06970a60ac6ea66ab421715b3c187bd004714c7ea92e
40bbd7871f7ce697b5cf594928c33453832c6ed193575dd9387525ca99c7dfebcb30f9dd2e1f23e20f19bfb55e2ecc29a64f444210c7fac32d813aacd1062c95
2a2bc220fd7d06ac7759caba265c785382a9e67dd527af4761e2df37786bc3c94328e2f31e37f98bcfd08a4381889bcf765f7165c076136e0316dd8d45bbd4c6
cab9b9b5fbe195f448e97ef87c514c6bd27d1849145025a2bc6d5320bf85425ae9a2e11709790a7272ea06970a60ac6ea66ab421715b3c187bd004714c7ea92e

fd3f47e397bdfe93993a194de12c146fe5753c06d248154b448187937921618f3a4a67c191933fe9af52c9ff219725057edc1d7100e24fa653afe3df58c9f461
b4b249bdba5d72c697ab34eb52837ae3e5753c06d248154b448187937921618f3a4a67c191933fe9af52c9ff219725057edc1d7100e24fa653afe3df58c9f461
6eac7d0d42077018c3632f168632da295243fba1944b59cce26dfc532b9aa1247ba6af38f5c15fb8901cf59cf28a9f6d87a007f448fb082ba770ea1cd3d234f2
35af6ca5673754bebd861b2fe68222e45243fba1944b59cce26dfc532b9aa1247ba6af38f5c15fb8901cf59cf28a9f6d87a007f448fb082ba770ea1cd3d234f2
9a46cde42a971a2682d2077d6d3807731a98082de218f4f447a4c04273fe92f4c8ddbd5e1fb491bf2bca283a194b894e75cae21ff860e5a2bbdfdc4da68a3346
d0a0ca96fadff08c85c259105543372a757dd6c07a2482dde8818729eb9bf465bf8f2ea589d0009944fddab8f4ec9574afe48085b6339830579b4a4f4d9c9ca5
670dfa1ff9549182746febc7f3e2e8a1e5753c06d248154b448187937921618f3a4a67c191933fe9af52c9ff219725057edc1d7100e24fa653afe3df58c9f461
8e84f9289b1c47d78407b42a94a6c7f0c201064a548b13f517a769915e177acd7ba6af38f5c15fb8901cf59cf28a9f6d87a007f448fb082ba770ea1cd3d234f2
14f247d4dda8b01d8c0ce956ac105de6e5753c06d248154b448187937921618f3a4a67c191933fe9af52c9ff219725057edc1d7100e24fa653afe3df58c9f461
25736138a30f30dd1328fed7fe3952efe5753c06d248154b448187937921618f3a4a67c191933fe9af52c9ff219725057edc1d7100e24fa653afe3df58c9f461
de7c5dd00496c505b9fe3552f92e7da55cdf9a49e9272ff9c7fa7791c9bc5d0a7ba6af38f5c15fb8901cf59cf28a9f6d87a007f448fb082ba770ea1cd3d234f2
fa1718ed54162a65049bf171ebcd5c0d5cdf9a49e9272ff9c7fa7791c9bc5d0a7ba6af38f5c15fb8901cf59cf28a9f6d87a007f448fb082ba770ea1cd3d234f2
95b46c6cb8320a0766b2182c9e94f91519006aa406b23dfc5b8a9802943738b90b1c45190bbdeee2d7d6e79bcc87bf5475cae21ff860e5a2bbdfdc4da68a3346
534d7b26de7282863731bd517cc61b07ef26af8ff6e5fd5d88b8d79d0d575a7a0973a97d8ae1141474c8401e9f6e0096afe48085b6339830579b4a4f4d9c9ca5
3c14c05420949055d9726d418399ecb1e5753c06d248154b448187937921618f3a4a67c191933fe9af52c9ff219725057edc1d7100e24fa653afe3df58c9f461
d6d6fa5a48c16f9501c3e7136a567818e5753c06d248154b448187937921618f3a4a67c191933fe9af52c9ff219725057edc1d7100e24fa653afe3df58c9f461
bb857d0e421e0e09e5add0cb2cfe8a653ac1551f615b607be81ac8f5e18727dc7ba6af38f5c15fb8901cf59cf28a9f6d87a007f448fb082ba770ea1cd3d234f2
db67331d2fe09a54f6cc27a6faf611e73ac1551f615b607be81ac8f5e18727dc7ba6af38f5c15fb8901cf59cf28a9f6d87a007f448fb082ba770ea1cd3d234f2
c15f16436459d7c46765cf6936ce5101e3728acabfae829fba184d1e677568920973a97d8ae1141474c8401e9f6e0096afe48085b6339830579b4a4f4d9c9ca5
f0c051f13618040c37a3483759a8b30319e2899c4b871a1b5b3a4b9196b11864fe410ad8ad702c49641c677f823e1c42cc17d36a6dc0c0a474cdca471febc591
4a5a9f06cbc03ed76bf0eea333a460c2e5753c06d248154b448187937921618f3a4a67c191933fe9af52c9ff219725057edc1d7100e24fa653afe3df58c9f461
0ac9fbf246ce325036f2fc9d8fbacf9d304e25f5a0f623c897869c650428afbf7ba6af38f5c15fb8901cf59cf28a9f6d87a007f448fb082ba770ea1cd3d234f2
4ce51f3d971c348a32481de62d62ce64e5753c06d248154b448187937921618f3a4a67c191933fe9af52c9ff219725057edc1d7100e24fa653afe3df58c9f461
6f28c187632f97fdf0d8cc4b82121181d6de2b57997a7c3e1214b1f1442d5d147ba6af38f5c15fb8901cf59cf28a9f6d87a007f448fb082ba770ea1cd3d234f2
f883e9093fc657d01b22ccadeefebb62acfb70af82b3644107280437b6f1e4c52f8cf7472d6a81c71594f49025101991b9d0f80656d17d6fefb2626926c993b8
87b15fe53fddda27b655b12d59d72f25b8e3cff1f629861d9bf0065033e9bb21d3ba4932368701c0e48913e4a5380142d1eb0df698246c8f36a30b52406c71ee
77cc3859eee5539389e0417f43523aa8acfb70af82b3644107280437b6f1e4c52f8cf7472d6a81c71594f49025101991b9d0f80656d17d6fefb2626926c993b8
9aa6e10e19cc7e4514dba6a7c3f64923acfb70af82b3644107280437b6f1e4c52f8cf7472d6a81c71594f49025101991b9d0f80656d17d6fefb2626926c993b8
7e32e20222227fe49df9e5009c9aa28042bc030303a82449f03fc1ffd3959b0cd3ba4932368701c0e48913e4a5380142d1eb0df698246c8f36a30b52406c71ee
5dc59cc574a3db0bf2bdeaea02f4ae2f42bc030303a82449f03fc1ffd3959b0cd3ba4932368701c0e48913e4a5380142d1eb0df698246c8f36a30b52406c71ee
066b42fc9652067f9ddc8ab2627ceff3f505aed0dcf43f9ca7010f530554d732f4b7046b2633827d5a211c4e62534de306307ec0929779c5086c646e4a57c548
e17b555eca349d2af805d05a076778bbc25f63ce94eb8773558ea3a71d60c731893c9238745ae6bd3940523faff0709375cae21ff860e5a2bbdfdc4da68a3346
0fd71193efba781d6006da4b471b5ad3acfb70af82b3644107280437b6f1e4c52f8cf7472d6a81c71594f49025101991b9d0f80656d17d6fefb2626926c993b8
4aa9bd662eade2f9dc657a896007cdcaacfb70af82b3644107280437b6f1e4c52f8cf7472d6a81c71594f49025101991b9d0f80656d17d6fefb2626926c993b8
c9c002d02fca423a623cebbeda40b1437660fe54771c57aa80bc481f8b0415f2d3ba4932368701c0e48913e4a5380142d1eb0df698246c8f36a30b52406c71ee
0c664602945354a6416cdc2c3a735b097660fe54771c57aa80bc481f8b0415f2d3ba4932368701c0e48913e4a5380142d1eb0df698246c8f36a30b52406c71ee
fe3a9d0e808f6c54a48384fa15a40298cfef669c04e72c38fffa0140177e833c7eb29d1e3e6757eca70d8536564e60e506307ec0929779c5086c646e4a57c548
871fdb5918999617b2c14372b7dc931dd1c7db7909ccd410562e110d9dc8269218e919c077ac2e72ba9ab91a3cf5f40175cae21ff860e5a2bbdfdc4da68a3346
a88ed8fdd32f8924890e8c1387301906acfb70af82b3644107280437b6f1e4c52f8cf7472d6a81c71594f49025101991b9d0f80656d17d6fefb2626926c993b8
da73de47cb777ff2ad7f6a2a47d8e71aacfb70af82b3644107280437b6f1e4c52f8cf7472d6a81c71594f49025101991b9d0f80656d17d6fefb2626926c993b8
dee17e2de1f6ef7b78caf4fdafe01e4069b88aeea077da8d05c722ca06c38485d3ba4932368701c0e48913e4a5380142d1eb0df698246c8f36a30b52406c71ee
3bf65ac640c21986dd858f3ab45cad7069b88aeea077da8d05c722ca06c38485d3ba4932368701c0e48913e4a5380142d1eb0df698246c8f36a30b52406c71ee
b854a5be7ba91d628ffa0c491015e8bc1f3b99333621e7daf99bfc4dd25342cb83f4b9315664055bceabd474d3e22c0b06307ec0929779c5086c646e4a57c548
e860c02774a511a2d1d2f718794e2794afde5b4496756a7afd1b0b290786d1e7209e926969dc5a07b89b50a06628f80875cae21ff860e5a2bbdfdc4da68a3346
4bd183e9e36a27d432bb31e9a2d5ec40acfb70af82b3644107280437b6f1e4c52f8cf7472d6a81c71594f49025101991b9d0f80656d17d6fefb2626926c993b8
afa46912bbc27bbea0370a1283311f19acfb70af82b3644107280437b6f1e4c52f8cf7472d6a81c71594f49025101991b9d0f80656d17d6fefb2626926c993b8
abe80fdf79c4b8626ef95be03955615444fd81d85380172e4d394087b2866810d3ba4932368701c0e48913e4a5380142d1eb0df698246c8f36a30b52406c71ee
5d0d12f120aea54c0cdd1d39f599b1dd44fd81d85380172e4d394087b2866810d3ba4932368701c0e48913e4a5380142d1eb0df698246c8f36a30b52406c71ee
c9a544f26270af4bf03972a27f75f5de71908876f7333d9904c7442feebb6ffc3d5fa872c087a45fd8580b00f7a46b3406307ec0929779c5086c646e4a57c548
83eac7cbe6d5605e66ad4d3ed47cdb1a2ecfb246efb31c3034527a78edca5711d57e2f72fd13bc0e739e2b8acf0aec9875cae21ff860e5a2bbdfdc4da68a3346
295eb6c1bdfd8061cd6eaa45e8215ad6acfb70af82b3644107280437b6f1e4c52f8cf7472d6a81c71594f49025101991b9d0f80656d17d6fefb2626926c993b8
61789de81dd1a1df5f4610384fcabc3bacfb70af82b3644107280437b6f1e4c52f8cf7472d6a81c71594f49025101991b9d0f80656d17d6fefb2626926c993b8
97619767740c7b3e8f29cf5833d71bc34a2d693454cb63acadd13b0fbb6d6af0d3ba4932368701c0e48913e4a5380142d1eb0df698246c8f36a30b52406c71ee
014ca216d7457e0b0a1f87e6672a501f4a2d693454cb63acadd13b0fbb6d6af0d3ba4932368701c0e48913e4a5380142d1eb0df698246c8f36a30b52406c71ee
30b9c3a29b5629303c7de51caa9e6fe7cde800ba1123e6c4afd5d09216cde9021a0d4955461e4d23a35094c7f387f33f06307ec0929779c5086c646e4a57c548
acdd755d3e55d8bda1f105c9a5ee35fe5c012c8b0dacb607dc1a35bd69ce3f5b356cf609e29299ee9ff40c304eba9b0375cae21ff860e5a2bbdfdc4da68a3346
a249bb0d25ec739a016f3c6c71e13f22acfb70af82b3644107280437b6f1e4c52f8cf7472d6a81c71594f49025101991b9d0f80656d17d6fefb2626926c993b8
f0e3eb61bf1d95a401338b75fa76bfffacfb70af82b3644107280437b6f1e4c52f8cf7472d6a81c71594f49025101991b9d0f80656d17d6fefb2626926c993b8
25eb4aa9da844e4e7c2fceec5f743003dbf864940240d1bf0c9a83ee9820469bd3ba4932368701c0e48913e4a5380142d1eb0df698246c8f36a30b52406c71ee
5b2bfd6a254799c48c43049b3347d8cedbf864940240d1bf0c9a83ee9820469bd3ba4932368701c0e48913e4a5380142d1eb0df698246c8f36a30b52406c71ee
701d43e51efc4ad33d839ea4457ed09e4466b6bbd31c6aab98f983cfa9afdc69fb1964b9953b5dad976e8b9a3cef2c5075cae21ff860e5a2bbdfdc4da68a3346
9c942971b9a780af595865531fb361e74501f3b7ec499f40fb56772c2a5ee19f5547f507171f220bd0df392a23229c25afe48085b6339830579b4a4f4d9c9ca5
015199ca07eff7d1fc72553cd3d35fd8acfb70af82b3644107280437b6f1e4c52f8cf7472d6a81c71594f49025101991b9d0f80656d17d6fefb2626926c993b8
9edcfd04e904880f01fbea799842325cacfb70af82b3644107280437b6f1e4c52f8cf7472d6a81c71594f49025101991b9d0f80656d17d6fefb2626926c993b8
631090052ff0722971763cc02c69aa51e8513bda7a7888771447a5aa3f0dddd11d08670102634e5754fb0087f01cbed792e94c55159b3de5689d4dbb1f1722db
86e66416e898b700a601f1b086d21d38e8513bda7a7888771447a5aa3f0dddd11d08670102634e5754fb0087f01cbed792e94c55159b3de5689d4dbb1f1722db
1796cac7dc8670f270c380cd63176b0c7b31ddde1950a9b2b1957213dd7be8360d7660013d4c0be1e1d2b72df69f308475cae21ff860e5a2bbdfdc4da68a3346
27b111f52f5562c443cc3fbfb862b80892d643251ae3659ccb6540c7314de8ce8e16050b4e79a9fdb3320faf94b1caafafe48085b6339830579b4a4f4d9c9ca5
cef75906c9b283034a821ac459d94408acfb70af82b3644107280437b6f1e4c52f8cf7472d6a81c71594f49025101991b9d0f80656d17d6fefb2626926c993b8
2ce6093db945d322bffab33178794e2facfb70af82b3644107280437b6f1e4c52f8cf7472d6a81c71594f49025101991b9d0f80656d17d6fefb2626926c993b8
e881029096519a0460dcca1ccd6952c8d39e30fc62a11604f9cf8b0d4fdad873d3ba4932368701c0e48913e4a5380142d1eb0df698246c8f36a30b52406c71ee
0136e654ca1ccac6608760db63b4656bd39e30fc62a11604f9cf8b0d4fdad873d3ba4932368701c0e48913e4a5380142d1eb0df698246c8f36a30b52406c71ee
e82de6e98d5b77b77475d4e908de22644211e6d870937cd00588ac592a8335f60347986c128f0a03dbc3599fbba92c4ddc086ecfb559539dca3760cabaa1dce8
39936c20a9da810405b28d5730224a8107acc81809bb59299dcede3a99b10138ad7a30e94737e588f5363cc9ded409dccadb8cfabe7cdbe09344787e2ce8c754
6f3c3929ac4194448670d12431467774acfb70af82b3644107280437b6f1e4c52f8cf7472d6a81c71594f49025101991b9d0f80656d17d6fefb2626926c993b8
52f45f9d42b7de4960f346f078a487e1d6304cca019fd2b282b20fa2dc7a1a1fd3ba4932368701c0e48913e4a5380142d1eb0df698246c8f36a30b52406c71ee
ccd75920cedf6f7699af4a57901434ebacfb70af82b3644107280437b6f1e4c52f8cf7472d6a81c71594f49025101991b9d0f80656d17d6fefb2626926c993b8
c9775f933945d3f5418acf83c9c5a80bacfb70af82b3644107280437b6f1e4c52f8cf7472d6a81c71594f49025101991b9d0f80656d17d6fefb2626926c993b8
a28d9b00ccd6dc961da8c863a7b50327f0ef62323c51ed19ab23d71db2c2ec15d3ba4932368701c0e48913e4a5380142d1eb0df698246c8f36a30b52406c71ee
57167aad8505faca9cd951fa39e2173bf0ef62323c51ed19ab23d71db2c2ec15d3ba4932368701c0e48913e4a5380142d1eb0df698246c8f36a30b52406c71ee
9ffe3a0e93f84e294e314f52408871ed87ab030f1ae236d6d1e964a2169900f4f263070d390daa8cefce4e0d022202eedc086ecfb559539dca3760cabaa1dce8
9c122a09287fee2275b2b714b8f416d477e186644ae2714bbce37f70e5bbfc236aab1e419366f1099a987c25d3fbb5eacadb8cfabe7cdbe09344787e2ce8c754
0457864f36ec80f5960a7dbeb1b78e6bacfb70af82b3644107280437b6f1e4c52f8cf7472d6a81c71594f49025101991b9d0f80656d17d6fefb2626926c993b8
f67bd2801c365b8d6c644768fc0aae35acfb70af82b3644107280437b6f1e4c52f8cf7472d6a81c71594f49025101991b9d0f80656d17d6fefb2626926c993b8
9cf1cf4016ae681950914813466288883a5b00724f29d9a8c0f0e1154cd9cb76d3ba4932368701c0e48913e4a5380142d1eb0df698246c8f36a30b52406c71ee
7f4867637788d99a0ae6168ab4f424663a5b00724f29d9a8c0f0e1154cd9cb76d3ba4932368701c0e48913e4a5380142d1eb0df698246c8f36a30b52406c71ee
2879207ef98dfca5398503c06d38f6e89c23be2abe150356ee270ed4874f864a6aab1e419366f1099a987c25d3fbb5eacadb8cfabe7cdbe09344787e2ce8c754
44e1ba8d41d0770cb236595e03aee83a67883ce28ee1afbbed1b8ebd7e5397d6b60ea0b962611132348d835bfa6d086206307ec0929779c5086c646e4a57c548
d5ca6e12b7c41c989abe83663bed5c5eacfb70af82b3644107280437b6f1e4c52f8cf7472d6a81c71594f49025101991b9d0f80656d17d6fefb2626926c993b8
f40bd270c9b5bab1b68bc4c27167c81e4780cbaf964f14c6acaf4497f64c6f68d3ba4932368701c0e48913e4a5380142d1eb0df698246c8f36a30b52406c71ee
f19665046fb8c358b036fabe3b66a783acfb70af82b3644107280437b6f1e4c52f8cf7472d6a81c71594f49025101991b9d0f80656d17d6fefb2626926c993b8
a2bf9fff58b53d6067fc72ca0aafc196cf1aa6952c7ede614e4d06e08f14ba94d3ba4932368701c0e48913e4a5380142d1eb0df698246c8f36a30b52406c71ee
5c1f1742c87a20d055c712618505877bacfb70af82b3644107280437b6f1e4c52f8cf7472d6a81c71594f49025101991b9d0f80656d17d6fefb2626926c993b8
13ddd3ed05fe6c3a66ea6f0516c4ac19b8e3cff1f629861d9bf0065033e9bb21d3ba4932368701c0e48913e4a5380142d1eb0df698246c8f36a30b52406c71ee
05c500ad37ae0972b0cc5bbf8a98cfbfacfb70af82b3644107280437b6f1e4c52f8cf7472d6a81c71594f49025101991b9d0f80656d17d6fefb2626926c993b8
b7873db39d297b6e64f4b140fbc6e8d7acfb70af82b3644107280437b6f1e4c52f8cf7472d6a81c71594f49025101991b9d0f80656d17d6fefb2626926c993b8
d025201709cc3c6fbd0c5866c2f1f45742bc030303a82449f03fc1ffd3959b0cd3ba4932368701c0e48913e4a5380142d1eb0df698246c8f36a30b52406c71ee
ea477b22c0ee5bcbbfa9aa468098942d42bc030303a82449f03fc1ffd3959b0cd3ba4932368701c0e48913e4a5380142d1eb0df698246c8f36a30b52406c71ee
edca5514ee73e11d46ead3558d713fe2f505aed0dcf43f9ca7010f530554d732f4b7046b2633827d5a211c4e62534de306307ec0929779c5086c646e4a57c548
ad28879190f27413f9d365a1b9fb5fe6c25f63ce94eb8773558ea3a71d60c731893c9238745ae6bd3940523faff0709375cae21ff860e5a2bbdfdc4da68a3346
9f8e70bd1da22279e3a71083fbc46b4dacfb70af82b3644107280437b6f1e4c52f8cf7472d6a81c71594f49025101991b9d0f80656d17d6fefb2626926c993b8
7cd925c66386a1fa66649ad22672ba47acfb70af82b3644107280437b6f1e4c52f8cf7472d6a81c71594f49025101991b9d0f80656d17d6fefb2626926c993b8
2195a7fcfc36c1abeb20bacf56ea6ea27660fe54771c57aa80bc481f8b0415f2d3ba4932368701c0e48913e4a5380142d1eb0df698246c8f36a30b52406c71ee
b1a69d61d8483e0cea03aa27d6aef34a7660fe54771c57aa80bc481f8b0415f2d3ba4932368701c0e48913e4a5380142d1eb0df698246c8f36a30b52406c71ee
6a1e38a94eab2de19723f333d032ca31cfef669c04e72c38fffa0140177e833c7eb29d1e3e6757eca70d8536564e60e506307ec0929779c5086c646e4a57c548
ef2654d4987d5851635bbe5268ba5497d1c7db7909ccd410562e110d9dc8269218e919c077ac2e72ba9ab91a3cf5f40175cae21ff860e5a2bbdfdc4da68a3346
91f8bf25aa856ebea94c07bc0d7d47ebacfb70af82b3644107280437b6f1e4c52f8cf7472d6a81c71594f49025101991b9d0f80656d17d6fefb2626926c993b8
87875c137ab736a7a42bd30ba88ac640acfb70af82b3644107280437b6f1e4c52f8cf7472d6a81c71594f49025101991b9d0f80656d17d6fefb2626926c993b8
4ba787989822620f9c256eaae9ae7f3569b88aeea077da8d05c722ca06c38485d3ba4932368701c0e48913e4a5380142d1eb0df698246c8f36a30b52406c71ee
9ca2bbdc969710bc1cf4161d42583db169b88aeea077da8d05c722ca06c38485d3ba4932368701c0e48913e4a5380142d1eb0df698246c8f36a30b52406c71ee
1c3e0216967c8f44e61069dd5b03b8f21f3b99333621e7daf99bfc4dd25342cb83f4b9315664055bceabd474d3e22c0b06307ec0929779c5086c646e4a57c548
38d922d15df036f3973943d9d1d31470afde5b4496756a7afd1b0b290786d1e7209e926969dc5a07b89b50a06628f80875cae21ff860e5a2bbdfdc4da68a3346
507352debe493a71e3d614784b76d037acfb70af82b3644107280437b6f1e4c52f8cf7472d6a81c71594f49025101991b9d0f80656d17d6fefb2626926c993b8
7199c38589388ffcbb588c0d5d2fb10dacfb70af82b3644107280437b6f1e4c52f8cf7472d6a81c71594f49025101991b9d0f80656d17d6fefb2626926c993b8
3a04dd02ce9314b5bfe39dcede8dac2644fd81d85380172e4d394087b2866810d3ba4932368701c0e48913e4a5380142d1eb0df698246c8f36a30b52406c71ee
cdaf10858b6684f94b6dfd14b85b48db44fd81d85380172e4d394087b2866810d3ba4932368701c0e48913e4a5380142d1eb0df698246c8f36a30b52406c71ee
3548f0811d3be8c5790bf11887d2809571908876f7333d9904c7442feebb6ffc3d5fa872c087a45fd8580b00f7a46b3406307ec0929779c5086c646e4a57c548
169d2d86cdf2b0cb924d3d0efc3698352ecfb246efb31c3034527a78edca5711d57e2f72fd13bc0e739e2b8acf0aec9875cae21ff860e5a2bbdfdc4da68a3346
d7c93c343a82f4b81032408b969a0b1eacfb70af82b3644107280437b6f1e4c52f8cf7472d6a81c71594f49025101991b9d0f80656d17d6fefb2626926c993b8
68c5f0122cff13ed1a48fa2c4908f270acfb70af82b3644107280437b6f1e4c52f8cf7472d6a81c71594f49025101991b9d0f80656d17d6fefb2626926c993b8
5f9550eee2549c4f343d2c77bbdfa17c4a2d693454cb63acadd13b0fbb6d6af0d3ba4932368701c0e48913e4a5380142d1eb0df698246c8f36a30b52406c71ee
6561e8eb3f9300557135a25b55df35684a2d693454cb63acadd13b0fbb6d6af0d3ba4932368701c0e48913e4a5380142d1eb0df698246c8f36a30b52406c71ee
bced6fa6f2c700e880f64f43d04044c4cde800ba1123e6c4afd5d09216cde9021a0d4955461e4d23a35094c7f387f33f06307ec0929779c5086c646e4a57c548
b3052e240eb5c35a0a35a6c950f8ef4d5c012c8b0dacb607dc1a35bd69ce3f5b356cf609e29299ee9ff40c304eba9b0375cae21ff860e5a2bbdfdc4da68a3346
0a88a9e1cf3b878f47a1baa69c96f2d2acfb70af82b3644107280437b6f1e4c52f8cf7472d6a81c71594f49025101991b9d0f80656d17d6fefb2626926c993b8
c44f571cd1023a56647d6dbf9aa23b77acfb70af82b3644107280437b6f1e4c52f8cf7472d6a81c71594f49025101991b9d0f80656d17d6fefb2626926c993b8
dbf9d6dfd705d841560a3c46a34a4bb7dbf864940240d1bf0c9a83ee9820469bd3ba4932368701c0e48913e4a5380142d1eb0df698246c8f36a30b52406c71ee
f3eee02bb0384dad2aed68d0122aabb0dbf864940240d1bf0c9a83ee9820469bd3ba4932368701c0e48913e4a5380142d1eb0df698246c8f36a30b52406c71ee
253982e654ad0d315da6cd177e2d89814466b6bbd31c6aab98f983cfa9afdc69fb1964b9953b5dad976e8b9a3cef2c5075cae21ff860e5a2bbdfdc4da68a3346
33aaed9f70722d18b0cf2741e7cfee2b4501f3b7ec499f40fb56772c2a5ee19f5547f507171f220bd0df392a23229c25afe48085b6339830579b4a4f4d9c9ca5
743b184e8efe48d912477e4e8107905bacfb70af82b3644107280437b6f1e4c52f8cf7472d6a81c71594f49025101991b9d0f80656d17d6fefb2626926c993b8
f84dcfc7edca4a732dab24724ff0d460acfb70af82b3644107280437b6f1e4c52f8cf7472d6a81c71594f49025101991b9d0f80656d17d6fefb2626926c993b8
1b15682153f1db73c69530e7f33a2331e8513bda7a7888771447a5aa3f0dddd11d08670102634e5754fb0087f01cbed792e94c55159b3de5689d4dbb1f1722db
8ba60679cdb5c5ade353ea60b6c031cfe8513bda7a7888771447a5aa3f0dddd11d08670102634e5754fb0087f01cbed792e94c55159b3de5689d4dbb1f1722db
c685ad973db69c5835de33010ed878167b31ddde1950a9b2b1957213dd7be8360d7660013d4c0be1e1d2b72df69f308475cae21ff860e5a2bbdfdc4da68a3346
7915ca50d1a182558dc8bb1c071500e192d643251ae3659ccb6540c7314de8ce8e16050b4e79a9fdb3320faf94b1caafafe48085b6339830579b4a4f4d9c9ca5
c0035b343024aa8d46fbd14547d7282eacfb70af82b3644107280437b6f1e4c52f8cf7472d6a81c71594f49025101991b9d0f80656d17d6fefb2626926c993b8
ec7ccf4fe72db86d99c7cdd326773528acfb70af82b3644107280437b6f1e4c52f8cf7472d6a81c71594f49025101991b9d0f80656d17d6fefb2626926c993b8
bfab503a13801e768537ce04a4637c28d39e30fc62a11604f9cf8b0d4fdad873d3ba4932368701c0e48913e4a5380142d1eb0df698246c8f36a30b52406c71ee
28acfe431192c60a3f9275f2847951d7d39e30fc62a11604f9cf8b0d4fdad873d3ba4932368701c0e48913e4a5380142d1eb0df698246c8f36a30b52406c71ee
21685eda5bdecd19444c73c9947c6ef44211e6d870937cd00588ac592a8335f60347986c128f0a03dbc3599fbba92c4ddc086ecfb559539dca3760cabaa1dce8
6d33ca998ec1b5470be0753f511c5d5007acc81809bb59299dcede3a99b10138ad7a30e94737e588f5363cc9ded409dccadb8cfabe7cdbe09344787e2ce8c754
4f73267708c91b25e1c8e61def269c15acfb70af82b3644107280437b6f1e4c52f8cf7472d6a81c71594f49025101991b9d0f80656d17d6fefb2626926c993b8
346d5dcf4a415848c97c0be4fb4e3cb5d6304cca019fd2b282b20fa2dc7a1a1fd3ba4932368701c0e48913e4a5380142d1eb0df698246c8f36a30b52406c71ee
11d1ab8017d34bb003d5e3311cddbafdacfb70af82b3644107280437b6f1e4c52f8cf7472d6a81c71594f49025101991b9d0f80656d17d6fefb2626926c993b8
2ddaf96e4678e34bd66cbaa7883126a1acfb70af82b3644107280437b6f1e4c52f8cf7472d6a81c71594f49025101991b9d0f80656d17d6fefb2626926c993b8
45072405c60a3dbf409569b69ad51685f0ef62323c51ed19ab23d71db2c2ec15d3ba4932368701c0e48913e4a5380142d1eb0df698246c8f36a30b52406c71ee
5613aaaf2ba72abbdd8cf61a51c505daf0ef62323c51ed19ab23d71db2c2ec15d3ba4932368701c0e48913e4a5380142d1eb0df698246c8f36a30b52406c71ee
7ef5c76cd2b940d74eab61f3200620f287ab030f1ae236d6d1e964a2169900f4f263070d390daa8cefce4e0d022202eedc086ecfb559539dca3760cabaa1dce8
42b1aeb4633fbad7fd5787be5db0f3d177e186644ae2714bbce37f70e5bbfc236aab1e419366f1099a987c25d3fbb5eacadb8cfabe7cdbe09344787e2ce8c754
270b10a2b66bfd70603e8b04315eda5dacfb70af82b3644107280437b6f1e4c52f8cf7472d6a81c71594f49025101991b9d0f80656d17d6fefb2626926c993b8
d3649298d357fea00f7e1f131e01cf0cacfb70af82b3644107280437b6f1e4c52f8cf7472d6a81c71594f49025101991b9d0f80656d17d6fefb2626926c993b8
d3e97cb3b37dbb1fd046684b38e82f333a5b00724f29d9a8c0f0e1154cd9cb76d3ba4932368701c0e48913e4a5380142d1eb0df698246c8f36a30b52406c71ee
d47e2f0a00b6bef6979910432a02b65d3a5b00724f29d9a8c0f0e1154cd9cb76d3ba4932368701c0e48913e4a5380142d1eb0df698246c8f36a30b52406c71ee
20c842df378eac9dbf27b829e49e3a009c23be2abe150356ee270ed4874f864a6aab1e419366f1099a987c25d3fbb5eacadb8cfabe7cdbe09344787e2ce8c754
256c5ba171e6021f84bb95742679353267883ce28ee1afbbed1b8ebd7e5397d6b60ea0b962611132348d835bfa6d086206307ec0929779c5086c646e4a57c548
ad7c6d306a39a8b20ce23780cf1ff71facfb70af82b3644107280437b6f1e4c52f8cf7472d6a81c71594f49025101991b9d0f80656d17d6fefb2626926c993b8
c19c44bf8c4678e6ddd77a741afc69754780cbaf964f14c6acaf4497f64c6f68d3ba4932368701c0e48913e4a5380142d1eb0df698246c8f36a30b52406c71ee
dbe639c5000bbc6a0bb93dc4fd540d27acfb70af82b3644107280437b6f1e4c52f8cf7472d6a81c71594f49025101991b9d0f80656d17d6fefb2626926c993b8
568575d28d044d2af7839bf18d3de2f7cf1aa6952c7ede614e4d06e08f14ba94d3ba4932368701c0e48913e4a5380142d1eb0df698246c8f36a30b52406c71ee
5e1f5b740199103b66d7212eb76b2a85acfb70af82b3644107280437b6f1e4c52f8cf7472d6a81c71594f49025101991b9d0f80656d17d6fefb2626926c993b8
450bc25ed72e7f97ea0469f966fa2387b8e3cff1f629861d9bf0065033e9bb21d3ba4932368701c0e48913e4a5380142d1eb0df698246c8f36a30b52406c71ee
93f97282586fbda5fd531e65c81e7576acfb70af82b3644107280437b6f1e4c52f8cf7472d6a81c71594f49025101991b9d0f80656d17d6fefb2626926c993b8
f8a2b6f7b24584fdb948cad864a64f2eacfb70af82b3644107280437b6f1e4c52f8cf7472d6a81c71594f49025101991b9d0f80656d17d6fefb2626926c993b8
c9bf919c9c324bad5bb516aa4ae57b5142bc030303a82449f03fc1ffd3959b0cd3ba4932368701c0e48913e4a5380142d1eb0df698246c8f36a30b52406c71ee
b126122f43c56d13974fa727728b0a5442bc030303a82449f03fc1ffd3959b0cd3ba4932368701c0e48913e4a5380142d1eb0df698246c8f36a30b52406c71ee
7c7d11cedf961d30ac2c8b6809b85918f505aed0dcf43f9ca7010f530554d732f4b7046b2633827d5a211c4e62534de306307ec0929779c5086c646e4a57c548
28aa99389421d598b3497b80116aa634c25f63ce94eb8773558ea3a71d60c731893c9238745ae6bd3940523faff0709375cae21ff860e5a2bbdfdc4da68a3346
a6dc5af3d01d22eb95c91ea2a39b68ffacfb70af82b3644107280437b6f1e4c52f8cf7472d6a81c71594f49025101991b9d0f80656d17d6fefb2626926c993b8
c14c43f8de089c7c20366a6f0a5070d6acfb70af82b3644107280437b6f1e4c52f8cf7472d6a81c71594f49025101991b9d0f80656d17d6fefb2626926c993b8
d09715bc7b238cf62c285606312712a17660fe54771c57aa80bc481f8b0415f2d3ba4932368701c0e48913e4a5380142d1eb0df698246c8f36a30b52406c71ee
77351bcfdc98f90d557958e645ea98f57660fe54771c57aa80bc481f8b0415f2d3ba4932368701c0e48913e4a5380142d1eb0df698246c8f36a30b52406c71ee
29601714ed7178a2dd84d063c10e685ecfef669c04e72c38fffa0140177e833c7eb29d1e3e6757eca70d8536564e60e506307ec0929779c5086c646e4a57c548
23cf939118c4853d740d45b69cf69403d1c7db7909ccd410562e110d9dc8269218e919c077ac2e72ba9ab91a3cf5f40175cae21ff860e5a2bbdfdc4da68a3346
e018a4d5e4886a6703bf7a1f2b339133acfb70af82b3644107280437b6f1e4c52f8cf7472d6a81c71594f49025101991b9d0f80656d17d6fefb2626926c993b8
0272162c58eadaba889cd014cdfb6997acfb70af82b3644107280437b6f1e4c52f8cf7472d6a81c71594f49025101991b9d0f80656d17d6fefb2626926c993b8
9ddadca26e6ee12d7ee042d7f21d092369b88aeea077da8d05c722ca06c38485d3ba4932368701c0e48913e4a5380142d1eb0df698246c8f36a30b52406c71ee
39b1473ba07ef7deef967ed1d013342969b88aeea077da8d05c722ca06c38485d3ba4932368701c0e48913e4a5380142d1eb0df698246c8f36a30b52406c71ee
45f2490d29469864871d6ca946e21aca1f3b99333621e7daf99bfc4dd25342cb83f4b9315664055bceabd474d3e22c0b06307ec0929779c5086c646e4a57c548
a49e43676a18de752f8ab30ff7f839ceafde5b4496756a7afd1b0b290786d1e7209e926969dc5a07b89b50a06628f80875cae21ff860e5a2bbdfdc4da68a3346
0c06d90dbe485ffd0884f547506a92bcacfb70af82b3644107280437b6f1e4c52f8cf7472d6a81c71594f49025101991b9d0f80656d17d6fefb2626926c993b8
816634f7ccc00d584218ef6bde022132acfb70af82b3644107280437b6f1e4c52f8cf7472d6a81c71594f49025101991b9d0f80656d17d6fefb2626926c993b8
de751144a70ca5ba14ad322f6db0127344fd81d85380172e4d394087b2866810d3ba4932368701c0e48913e4a5380142d1eb0df698246c8f36a30b52406c71ee
06a141ab794bcea5cefcd43f8cc5f74f44fd81d85380172e4d394087b2866810d3ba4932368701c0e48913e4a5380142d1eb0df698246c8f36a30b52406c71ee
21be6b18eee512301e56baf0bf61a54d71908876f7333d9904c7442feebb6ffc3d5fa872c087a45fd8580b00f7a46b3406307ec0929779c5086c646e4a57c548
2cede1f34049e7074099bdbfbfa896ec2ecfb246efb31c3034527a78edca5711d57e2f72fd13bc0e739e2b8acf0aec9875cae21ff860e5a2bbdfdc4da68a3346
7f0fc957c99f3a96e55ccd34e315d3ceacfb70af82b3644107280437b6f1e4c52f8cf7472d6a81c71594f49025101991b9d0f80656d17d6fefb2626926c993b8
d559687f413309c97d725369c5de15c5acfb70af82b3644107280437b6f1e4c52f8cf7472d6a81c71594f49025101991b9d0f80656d17d6fefb2626926c993b8
f49a3532b0dad78382a451f5d5a384814a2d693454cb63acadd13b0fbb6d6af0d3ba4932368701c0e48913e4a5380142d1eb0df698246c8f36a30b52406c71ee
a014caf5af25e338ac006e51a555b0674a2d693454cb63acadd13b0fbb6d6af0d3ba4932368701c0e48913e4a5380142d1eb0df698246c8f36a30b52406c71ee
37f5a50e1d406d3a8ce5781f5c91e331cde800ba1123e6c4afd5d09216cde9021a0d4955461e4d23a35094c7f387f33f06307ec0929779c5086c646e4a57c548
16271355a7f3e7141aa78dc155f093f85c012c8b0dacb607dc1a35bd69ce3f5b356cf609e29299ee9ff40c304eba9b0375cae21ff860e5a2bbdfdc4da68a3346
2d35e952ab3a281700056fefd965036bacfb70af82b3644107280437b6f1e4c52f8cf7472d6a81c71594f49025101991b9d0f80656d17d6fefb2626926c993b8
b6ffffac530a512d9120e24aa27c6ddcacfb70af82b3644107280437b6f1e4c52f8cf7472d6a81c71594f49025101991b9d0f80656d17d6fefb2626926c993b8
5e468c04a14ba8be9944b11b3574b137dbf864940240d1bf0c9a83ee9820469bd3ba4932368701c0e48913e4a5380142d1eb0df698246c8f36a30b52406c71ee
276ff7c8118e31d515dc68b436c08545dbf864940240d1bf0c9a83ee9820469bd3ba4932368701c0e48913e4a5380142d1eb0df698246c8f36a30b52406c71ee
4223c0cf8c0a8202e849800cdaaba8524466b6bbd31c6aab98f983cfa9afdc69fb1964b9953b5dad976e8b9a3cef2c5075cae21ff860e5a2bbdfdc4da68a3346
77c700d254f2e5f7e4367ad483af75804501f3b7ec499f40fb56772c2a5ee19f5547f507171f220bd0df392a23229c25afe48085b6339830579b4a4f4d9c9ca5
364f17730110e3d5522786a8a8150efbacfb70af82b3644107280437b6f1e4c52f8cf7472d6a81c71594f49025101991b9d0f80656d17d6fefb2626926c993b8
10dea844702d4baa2938103a79403645acfb70af82b3644107280437b6f1e4c52f8cf7472d6a81c71594f49025101991b9d0f80656d17d6fefb2626926c993b8