**************************************************
* Manufacturer:           W僡th Elektronik
* Kinds:                  SMT Molded Coupled Inductor
* Matchcode:              WE-MCRI
* Library Type:           Pspice
* Version:                rev26c
* Created/modified by:    Ella
* Date and Time:          7/24/2026
* Team:                   eiSos EDA Service  
* Contact:                libraries@we-online.com
**************************************************
* Copyright(C) 2026 W僡th Elektronik eiSos GmbH & Co. KG
* All Rights Reserved.
**************************************************
* Disclaimer: While W僡th Elektronik eiSos has made every reasonable effort to ensure the accuracy
* of the simulation models provided, W僡th Elektronik eiSos does not guarantee the exemption of error on
* the simulation models, nor does W僡th Elektronik eiSos guarantee that the simulation model is current.
* W僡th Elektronik eiSos reserves the right to make any adjustments at any time without notice.
* W僡th Elektronik eiSos expressly disclaims all implied warranties regarding this simulation model.
**************************************************
.subckt MCRI_1090L_7448992010_1u 1  2  3  4  PARAMS:
+  Cww=40.9p
+  Rp1=1240
+  Cp1=22.835p
+  Lp1=0.966429u
+  Rp2=1240
+  Cp2=22.835p
+  Lp2=0.966429u
+  RDC1=0.0047
+  RDC2=0.0000047
+  K=0.72389288284221
C_C1 3 1 {Cww/2}
R_R50 3 1 5000g
C_C2 4 2 {Cww/2}
C_C5 4 3 {Cp1}
R_R1 4 N05454 {RDC1}
R_R2 4 3 {Rp1}
L_L1 N05454 3 {Lp1}
L_L2 N05750 1 {Lp2}
C_C6 2 1 {Cp2}
R_R3 2 1 {Rp2}
R_R4 2 N05750 {RDC2}
Kn_K1  L_L1  L_L2  {K}
.ends 
*******
.subckt MCRI_1090L_7448992015_1u5 1  2  3  4  PARAMS:
+  Cww=34.7p
+  Rp1=2048
+  Cp1=20.463p
+  Lp1=1.486u
+  Rp2=2048
+  Cp2=20.463p
+  Lp2=1.486u
+  RDC1=0.0079
+  RDC2=0.0000079
+  K=0.76779034823481
C_C1 3 1 {Cww/2}
R_R50 3 1 5000g
C_C2 4 2 {Cww/2}
C_C5 4 3 {Cp1}
R_R1 4 N05454 {RDC1}
R_R2 4 3 {Rp1}
L_L1 N05454 3 {Lp1}
L_L2 N05750 1 {Lp2}
C_C6 2 1 {Cp2}
R_R3 2 1 {Rp2}
R_R4 2 N05750 {RDC2}
Kn_K1  L_L1  L_L2  {K}
.ends 
*******
.subckt MCRI_1090L_7448992022_2u2 1  2  3  4  PARAMS:
+  Cww=28.1p
+  Rp1=3002
+  Cp1=24.181p
+  Lp1=2.032u
+  Rp2=3002
+  Cp2=24.181p
+  Lp2=2.032u
+  RDC1=0.0095
+  RDC2=0.0000095
+  K=0.677245463124586
C_C1 3 1 {Cww/2}
R_R50 3 1 5000g
C_C2 4 2 {Cww/2}
C_C5 4 3 {Cp1}
R_R1 4 N05454 {RDC1}
R_R2 4 3 {Rp1}
L_L1 N05454 3 {Lp1}
L_L2 N05750 1 {Lp2}
C_C6 2 1 {Cp2}
R_R3 2 1 {Rp2}
R_R4 2 N05750 {RDC2}
Kn_K1  L_L1  L_L2  {K}
.ends 
*******
.subckt MCRI_1090L_7448992033_3u3 1  2  3  4  PARAMS:
+  Cww=34.3p
+  Rp1=3532
+  Cp1=23.24p
+  Lp1=3.156u
+  Rp2=3532
+  Cp2=23.24p
+  Lp2=3.156u
+  RDC1=0.023
+  RDC2=0.000023
+  K=0.83415675415014
C_C1 3 1 {Cww/2}
R_R50 3 1 5000g
C_C2 4 2 {Cww/2}
C_C5 4 3 {Cp1}
R_R1 4 N05454 {RDC1}
R_R2 4 3 {Rp1}
L_L1 N05454 3 {Lp1}
L_L2 N05750 1 {Lp2}
C_C6 2 1 {Cp2}
R_R3 2 1 {Rp2}
R_R4 2 N05750 {RDC2}
Kn_K1  L_L1  L_L2  {K}
.ends 
*******
.subckt MCRI_1090L_7448992047_4u7 1  2  3  4  PARAMS:
+  Cww=33.3p
+  Rp1=4189
+  Cp1=22.724p
+  Lp1=4.478u
+  Rp2=4189
+  Cp2=22.724p
+  Lp2=4.478u
+  RDC1=0.036
+  RDC2=0.000036
+  K=0.842432090265056
C_C1 3 1 {Cww/2}
R_R50 3 1 5000g
C_C2 4 2 {Cww/2}
C_C5 4 3 {Cp1}
R_R1 4 N05454 {RDC1}
R_R2 4 3 {Rp1}
L_L1 N05454 3 {Lp1}
L_L2 N05750 1 {Lp2}
C_C6 2 1 {Cp2}
R_R3 2 1 {Rp2}
R_R4 2 N05750 {RDC2}
Kn_K1  L_L1  L_L2  {K}
.ends 
*******
.subckt MCRI_1090L_7448992068_6u8 1  2  3  4  PARAMS:
+  Cww=36.4p
+  Rp1=4149
+  Cp1=28.017p
+  Lp1=6.781u
+  Rp2=4149
+  Cp2=28.017p
+  Lp2=6.781u
+  RDC1=0.046
+  RDC2=0.000046
+  K=0.821927050348734
C_C1 3 1 {Cww/2}
R_R50 3 1 5000g
C_C2 4 2 {Cww/2}
C_C5 4 3 {Cp1}
R_R1 4 N05454 {RDC1}
R_R2 4 3 {Rp1}
L_L1 N05454 3 {Lp1}
L_L2 N05750 1 {Lp2}
C_C6 2 1 {Cp2}
R_R3 2 1 {Rp2}
R_R4 2 N05750 {RDC2}
Kn_K1  L_L1  L_L2  {K}
.ends 
*******
.subckt MCRI_1090L_7448992082_8u2 1  2  3  4  PARAMS:
+  Cww=36.3p
+  Rp1=5003
+  Cp1=29.007p
+  Lp1=8.949u
+  Rp2=5003
+  Cp2=29.007p
+  Lp2=8.949u
+  RDC1=0.057
+  RDC2=0.000057
+  K=0.720763057742411
C_C1 3 1 {Cww/2}
R_R50 3 1 5000g
C_C2 4 2 {Cww/2}
C_C5 4 3 {Cp1}
R_R1 4 N05454 {RDC1}
R_R2 4 3 {Rp1}
L_L1 N05454 3 {Lp1}
L_L2 N05750 1 {Lp2}
C_C6 2 1 {Cp2}
R_R3 2 1 {Rp2}
R_R4 2 N05750 {RDC2}
Kn_K1  L_L1  L_L2  {K}
.ends 
*******
.subckt MCRI_1090L_7448992100_10u 1  2  3  4  PARAMS:
+  Cww=37.5p
+  Rp1=7463
+  Cp1=28.811p
+  Lp1=10.532u
+  Rp2=7463
+  Cp2=28.811p
+  Lp2=10.532u
+  RDC1=0.06
+  RDC2=0.00006
+  K=0.775380773371635
C_C1 3 1 {Cww/2}
R_R50 3 1 5000g
C_C2 4 2 {Cww/2}
C_C5 4 3 {Cp1}
R_R1 4 N05454 {RDC1}
R_R2 4 3 {Rp1}
L_L1 N05454 3 {Lp1}
L_L2 N05750 1 {Lp2}
C_C6 2 1 {Cp2}
R_R3 2 1 {Rp2}
R_R4 2 N05750 {RDC2}
Kn_K1  L_L1  L_L2  {K}
.ends 
*******
.subckt MCRI_1090L_7448992150_15u 1  2  3  4  PARAMS:
+  Cww=34.1p
+  Rp1=7617
+  Cp1=23.512p
+  Lp1=15.085u
+  Rp2=7617
+  Cp2=23.512p
+  Lp2=15.085u
+  RDC1=0.076
+  RDC2=0.000076
+  K=0.784545790958505
C_C1 3 1 {Cww/2}
R_R50 3 1 5000g
C_C2 4 2 {Cww/2}
C_C5 4 3 {Cp1}
R_R1 4 N05454 {RDC1}
R_R2 4 3 {Rp1}
L_L1 N05454 3 {Lp1}
L_L2 N05750 1 {Lp2}
C_C6 2 1 {Cp2}
R_R3 2 1 {Rp2}
R_R4 2 N05750 {RDC2}
Kn_K1  L_L1  L_L2  {K}
.ends 
*******
.subckt MCRI_1090L_7448992220_22u 1  2  3  4  PARAMS:
+  Cww=35.8p
+  Rp1=14036
+  Cp1=22.785p
+  Lp1=21.27u
+  Rp2=14036
+  Cp2=22.785p
+  Lp2=21.27u
+  RDC1=0.093
+  RDC2=0.000093
+  K=0.734341316911022
C_C1 3 1 {Cww/2}
R_R50 3 1 5000g
C_C2 4 2 {Cww/2}
C_C5 4 3 {Cp1}
R_R1 4 N05454 {RDC1}
R_R2 4 3 {Rp1}
L_L1 N05454 3 {Lp1}
L_L2 N05750 1 {Lp2}
C_C6 2 1 {Cp2}
R_R3 2 1 {Rp2}
R_R4 2 N05750 {RDC2}
Kn_K1  L_L1  L_L2  {K}
.ends 
*******
.subckt MCRI_1090L_7448992330_33u 1  2  3  4  PARAMS:
+  Cww=39p
+  Rp1=17152
+  Cp1=26.046p
+  Lp1=34.738u
+  Rp2=17152
+  Cp2=26.046p
+  Lp2=34.738u
+  RDC1=0.128
+  RDC2=0.000128
+  K=0.730514824334691
C_C1 3 1 {Cww/2}
R_R50 3 1 5000g
C_C2 4 2 {Cww/2}
C_C5 4 3 {Cp1}
R_R1 4 N05454 {RDC1}
R_R2 4 3 {Rp1}
L_L1 N05454 3 {Lp1}
L_L2 N05750 1 {Lp2}
C_C6 2 1 {Cp2}
R_R3 2 1 {Rp2}
R_R4 2 N05750 {RDC2}
Kn_K1  L_L1  L_L2  {K}
.ends 
*******
.subckt MCRI_1090L_7448992470_47u 1  2  3  4  PARAMS:
+  Cww=38p
+  Rp1=11639
+  Cp1=29.858p
+  Lp1=48.397u
+  Rp2=11639
+  Cp2=29.858p
+  Lp2=48.397u
+  RDC1=0.206
+  RDC2=0.000206
+  K=0.573123697801615
C_C1 3 1 {Cww/2}
R_R50 3 1 5000g
C_C2 4 2 {Cww/2}
C_C5 4 3 {Cp1}
R_R1 4 N05454 {RDC1}
R_R2 4 3 {Rp1}
L_L1 N05454 3 {Lp1}
L_L2 N05750 1 {Lp2}
C_C6 2 1 {Cp2}
R_R3 2 1 {Rp2}
R_R4 2 N05750 {RDC2}
Kn_K1  L_L1  L_L2  {K}
.ends 
*******
.subckt MCRI_1040_7448991150_15u 1  2  3  4  PARAMS:
+  Cww=293p
+  Rp1=12218
+  Cp1=23.797p
+  Lp1=14.109u
+  Rp2=12218
+  Cp2=23.797p
+  Lp2=14.109u
+  RDC1=0.083
+  RDC2=0.083
+  K=0.99
C_C1 3 1 {Cww/2}
R_R50 3 1 5000g
C_C2 4 2 {Cww/2}
C_C5 4 3 {Cp1}
R_R1 4 N05454 {RDC1}
R_R2 4 3 {Rp1}
L_L1 N05454 3 {Lp1}
L_L2 N05750 1 {Lp2}
C_C6 2 1 {Cp2}
R_R3 2 1 {Rp2}
R_R4 2 N05750 {RDC2}
Kn_K1  L_L1  L_L2  {K}
.ends 
*******
.subckt MCRI_1040_7448991047_4u7 1  2  3  4  PARAMS:
+  Cww=160.34p
+  Rp1=6863
+  Cp1=25.197p
+  Lp1=4.953u
+  Rp2=6863
+  Cp2=25.197p
+  Lp2=4.953u
+  RDC1=0.0244
+  RDC2=0.0244
+  K=0.9
C_C1 3 1 {Cww/2}
R_R50 3 1 5000g
C_C2 4 2 {Cww/2}
C_C5 4 3 {Cp1}
R_R1 4 N05454 {RDC1}
R_R2 4 3 {Rp1}
L_L1 N05454 3 {Lp1}
L_L2 N05750 1 {Lp2}
C_C6 2 1 {Cp2}
R_R3 2 1 {Rp2}
R_R4 2 N05750 {RDC2}
Kn_K1  L_L1  L_L2  {K}
.ends 
*******
