**************************************************
* Manufacturer:           Wurth Elektronik 
* Kinds:                  Power Multilayer Inductor
* Matchcode:              WE-PMI 
* Library Type:           Pspice
* Version:                rev22a
* Created/modified by:    Ella      
* Date and Time:          2022-06-10
* Team:                   eiSos EDA Service  
* Contact:                libraries@we-online.com
**************************************************
* Copyright(C) 2022 Würth Elektronik eiSos GmbH & Co. KG
* All Rights Reserved.
**************************************************
* Disclaimer: While Würth Elektronik eiSos has made every reasonable effort to ensure the accuracy
* of the simulation models provided, Würth Elektronik eiSos does not guarantee the exemption of error on
* the simulation models, nor does Würth Elektronik eiSos guarantee that the simulation model is current.
* Würth Elektronik eiSos reserves the right to make any adjustments at any time without notice.
* Würth Elektronik eiSos expressly disclaims all implied warranties regarding this simulation model.
**************************************************
.subckt PMI_1008_74479787147B_0u47 1 2
Rp 1 2 600
Cp 1 2 4.1p
Rs 1 N3 0.04
L1 N3 2 0.47u
.ends PMI_1008_74479787147B_0u47
*******
.subckt PMI_1008_74479787210B_1u 1 2
Rp 1 2 1100
Cp 1 2 4p
Rs 1 N3 0.06
L1 N3 2 1u
.ends PMI_1008_74479787210B_1u
*******
.subckt PMI_1008_74479787215A_1u5 1 2
Rp 1 2 1650
Cp 1 2 3.8p
Rs 1 N3 0.07
L1 N3 2 1.5u
.ends PMI_1008_74479787215A_1u5
*******
.subckt PMI_1008_74479787222A_2u2 1 2
Rp 1 2 2100
Cp 1 2 3.6p
Rs 1 N3 0.085
L1 N3 2 2.2u
.ends PMI_1008_74479787222A_2u2
*******
.subckt PMI_1008_74479787233A_3u3 1 2
Rp 1 2 2100
Cp 1 2 3.5p
Rs 1 N3 0.1
L1 N3 2 3.3u
.ends PMI_1008_74479787233A_3u3
*******
.subckt PMI_1008_74479787247A_4u7 1 2
Rp 1 2 2200
Cp 1 2 3.5p
Rs 1 N3 0.11
L1 N3 2 4.7u
.ends PMI_1008_74479787247A_4u7
*******
.subckt PMI_1008_74479887124C_0u24 1 2
Rp 1 2 525.038
Cp 1 2 4.02p
Rs 1 N3 0.02
L1 N3 2 0.24u
.ends PMI_1008_74479887124C_0u24
*******
.subckt PMI_1008_74479887147C_0u47 1 2
Rp 1 2 1031.41
Cp 1 2 3.567p
Rs 1 N3 0.033
L1 N3 2 0.47u
.ends PMI_1008_74479887147C_0u47
*******
.subckt PMI_1008_74479887210C_1u 1 2
Rp 1 2 1564.25
Cp 1 2 4.613p
Rs 1 N3 0.045
L1 N3 2 1u
.ends PMI_1008_74479887210C_1u
*******
.subckt PMI_1008_74479887222C_2u2 1 2
Rp 1 2 2962.14
Cp 1 2 2.929p
Rs 1 N3 0.09
L1 N3 2 2.2u
.ends PMI_1008_74479887222C_2u2
*******
.subckt PMI_1008_74479889268_6u8 1 2
Rp 1 2 7000
Cp 1 2 2.8p
Rs 1 N3 0.5
L1 N3 2 6.8u
.ends PMI_1008_74479889268_6u8
*******
.subckt PMI_1210_74479897122_0u22 1 2
Rp 1 2 288.07
Cp 1 2 3.69p
Rs 1 N3 0.016
L1 N3 2 0.22u
.ends PMI_1210_74479897122_0u22
*******
.subckt PMI_1210_74479897150_0u5 1 2
Rp 1 2 466.11
Cp 1 2 3.731p
Rs 1 N3 0.025
L1 N3 2 0.5u
.ends PMI_1210_74479897150_0u5
*******
.subckt PMI_1210_74479899111_0u11 1 2
Rp 1 2 166.683
Cp 1 2 2.105p
Rs 1 N3 0.007
L1 N3 2 0.11u
.ends PMI_1210_74479899111_0u11
*******
.subckt PMI_1210_74479899130_0u3 1 2
Rp 1 2 362.407
Cp 1 2 4.338p
Rs 1 N3 0.015
L1 N3 2 0.3u
.ends PMI_1210_74479899130_0u3
*******
.subckt PMI_1210_74479899150_0u5 1 2
Rp 1 2 641.519
Cp 1 2 3.012p
Rs 1 N3 0.018
L1 N3 2 0.5u
.ends PMI_1210_74479899150_0u5
*******
.subckt PMI_1210_74479899210_1u 1 2
Rp 1 2 1469
Cp 1 2 3.439p
Rs 1 N3 0.05
L1 N3 2 1u
.ends PMI_1210_74479899210_1u
*******
.subckt PMI_0603_74479762122_0u22 1 2
Rp 1 2 600
Cp 1 2 1.4p
Rs 1 N3 0.12
L1 N3 2 0.22u
.ends PMI_0603_74479762122_0u22
*******
.subckt PMI_0603_74479762133_0u33 1 2
Rp 1 2 850
Cp 1 2 1.55p
Rs 1 N3 0.16
L1 N3 2 0.33u
.ends PMI_0603_74479762133_0u33
*******
.subckt PMI_0603_74479762168_0u68 1 2
Rp 1 2 1200
Cp 1 2 1.4p
Rs 1 N3 0.22
L1 N3 2 0.68u
.ends PMI_0603_74479762168_0u68
*******
.subckt PMI_0603_74479763147_0u47 1 2
Rp 1 2 600
Cp 1 2 1.1p
Rs 1 N3 0.3
L1 N3 2 0.47u
.ends PMI_0603_74479763147_0u47
*******
.subckt PMI_0603_74479763147A_0u47 1 2
Rp 1 2 1200
Cp 1 2 1.45p
Rs 1 N3 0.09
L1 N3 2 0.47u
.ends PMI_0603_74479763147A_0u47
*******
.subckt PMI_0603_74479763168_0u68 1 2
Rp 1 2 1500
Cp 1 2 1.2p
Rs 1 N3 0.18
L1 N3 2 0.68u
.ends PMI_0603_74479763168_0u68
*******
.subckt PMI_0603_74479763210_1u 1 2
Rp 1 2 1000
Cp 1 2 1.1p
Rs 1 N3 0.3
L1 N3 2 1u
.ends PMI_0603_74479763210_1u
*******
.subckt PMI_0603_74479763210A_1u 1 2
Rp 1 2 1600
Cp 1 2 1.25p
Rs 1 N3 0.2
L1 N3 2 1u
.ends PMI_0603_74479763210A_1u
*******
.subckt PMI_0603_74479763215_1u5 1 2
Rp 1 2 2000
Cp 1 2 1.3p
Rs 1 N3 0.23
L1 N3 2 1.5u
.ends PMI_0603_74479763215_1u5
*******
.subckt PMI_0603_74479763222_2u2 1 2
Rp 1 2 2100
Cp 1 2 1.35p
Rs 1 N3 0.3
L1 N3 2 2.2u
.ends PMI_0603_74479763222_2u2
*******
.subckt PMI_0805_74479773133_0u33 1 2
Rp 1 2 650
Cp 1 2 2p
Rs 1 N3 0.1
L1 N3 2 0.33u
.ends PMI_0805_74479773133_0u33
*******
.subckt PMI_0805_74479773147_0u47 1 2
Rp 1 2 900
Cp 1 2 2.2p
Rs 1 N3 0.1
L1 N3 2 0.47u
.ends PMI_0805_74479773147_0u47
*******
.subckt PMI_0805_74479773154_0u54 1 2
Rp 1 2 920
Cp 1 2 2.2p
Rs 1 N3 0.12
L1 N3 2 0.54u
.ends PMI_0805_74479773154_0u54
*******
.subckt PMI_0805_74479773210_1u 1 2
Rp 1 2 1600
Cp 1 2 2.2p
Rs 1 N3 0.18
L1 N3 2 1u
.ends PMI_0805_74479773210_1u
*******
.subckt PMI_0805_74479774147_0u47 1 2
Rp 1 2 550
Cp 1 2 1.75p
Rs 1 N3 0.12
L1 N3 2 0.47u
.ends PMI_0805_74479774147_0u47
*******
.subckt PMI_0805_74479774210_1u 1 2
Rp 1 2 1200
Cp 1 2 2p
Rs 1 N3 0.19
L1 N3 2 1u
.ends PMI_0805_74479774210_1u
*******
.subckt PMI_0805_74479774215_1u5 1 2
Rp 1 2 1800
Cp 1 2 1.55p
Rs 1 N3 0.26
L1 N3 2 1.5u
.ends PMI_0805_74479774215_1u5
*******
.subckt PMI_0805_74479774222_2u2 1 2
Rp 1 2 2300
Cp 1 2 2.2p
Rs 1 N3 0.34
L1 N3 2 2.2u
.ends PMI_0805_74479774222_2u2
*******
.subckt PMI_0805_74479775147A_0u47 1 2
Rp 1 2 1000
Cp 1 2 1.3p
Rs 1 N3 0.1
L1 N3 2 0.47u
.ends PMI_0805_74479775147A_0u47
*******
.subckt PMI_0805_74479775210A_1u 1 2
Rp 1 2 1600
Cp 1 2 2p
Rs 1 N3 0.11
L1 N3 2 1u
.ends PMI_0805_74479775210A_1u
*******
.subckt PMI_0805_74479775215_1u5 1 2
Rp 1 2 1800
Cp 1 2 2p
Rs 1 N3 0.16
L1 N3 2 1.5u
.ends PMI_0805_74479775215_1u5
*******
.subckt PMI_0805_74479775222A_2u2 1 2
Rp 1 2 2000
Cp 1 2 2.1p
Rs 1 N3 0.2
L1 N3 2 2.2u
.ends PMI_0805_74479775222A_2u2
*******
.subckt PMI_0805_74479775233_3u3 1 2
Rp 1 2 2000
Cp 1 2 2.2p
Rs 1 N3 0.2
L1 N3 2 3.3u
.ends PMI_0805_74479775233_3u3
*******
.subckt PMI_0805_74479775247_4u7 1 2
Rp 1 2 2700
Cp 1 2 2p
Rs 1 N3 0.25
L1 N3 2 4.7u
.ends PMI_0805_74479775247_4u7
*******
.subckt PMI_0805_74479777268_6u8 1 2
Rp 1 2 4000
Cp 1 2 2p
Rs 1 N3 0.3
L1 N3 2 6.8u
.ends PMI_0805_74479777268_6u8
*******
.subckt PMI_0805_74479777310_10u 1 2
Rp 1 2 9000
Cp 1 2 2.5p
Rs 1 N3 0.5
L1 N3 2 10u
.ends PMI_0805_74479777310_10u
*******
.subckt PMI_0805_74479777310A_10u 1 2
Rp 1 2 4000
Cp 1 2 2.1p
Rs 1 N3 0.3
L1 N3 2 10u
.ends PMI_0805_74479777310A_10u
*******
.subckt PMI_0805_74479875210C_1u 1 2
Rp 1 2 1719.82
Cp 1 2 1.763p
Rs 1 N3 0.115
L1 N3 2 1u
.ends PMI_0805_74479875210C_1u
*******
.subckt PMI_0805_74479875222C_2u2 1 2
Rp 1 2 2277.85
Cp 1 2 2.151p
Rs 1 N3 0.14
L1 N3 2 2.2u
.ends PMI_0805_74479875222C_2u2
*******
.subckt PMI_0805LR_74479775147_0u47 1 2
Rp 1 2 625
Cp 1 2 1.65p
Rs 1 N3 0.075
L1 N3 2 0.47u
.ends PMI_0805LR_74479775147_0u47
*******
.subckt PMI_0805LR_74479775210_1u 1 2
Rp 1 2 900
Cp 1 2 1.8p
Rs 1 N3 0.1
L1 N3 2 1u
.ends PMI_0805LR_74479775210_1u
*******
.subckt PMI_0805LR_74479775222_2u2 1 2
Rp 1 2 2300
Cp 1 2 1.8p
Rs 1 N3 0.23
L1 N3 2 2.2u
.ends PMI_0805LR_74479775222_2u2
*******
.subckt PMI_0806_74479776147_0u47 1 2
Rp 1 2 1150
Cp 1 2 2.4p
Rs 1 N3 0.08
L1 N3 2 0.47u
.ends PMI_0806_74479776147_0u47
*******
.subckt PMI_0806_74479776210_1u 1 2
Rp 1 2 1300
Cp 1 2 2.5p
Rs 1 N3 0.09
L1 N3 2 1u
.ends PMI_0806_74479776210_1u
*******
.subckt PMI_0806_74479776215_1u5 1 2
Rp 1 2 2000
Cp 1 2 2.35p
Rs 1 N3 0.11
L1 N3 2 1.5u
.ends PMI_0806_74479776215_1u5
*******
.subckt PMI_0806_74479776222A_2u2 1 2
Rp 1 2 2000
Cp 1 2 2.3p
Rs 1 N3 0.11
L1 N3 2 2.2u
.ends PMI_0806_74479776222A_2u2
*******
.subckt PMI_0806_74479776233A_3u3 1 2
Rp 1 2 2100
Cp 1 2 2.3p
Rs 1 N3 0.12
L1 N3 2 3.3u
.ends PMI_0806_74479776233A_3u3
*******
.subckt PMI_0806_74479776247A_4u7 1 2
Rp 1 2 2300
Cp 1 2 2.4p
Rs 1 N3 0.14
L1 N3 2 4.7u
.ends PMI_0806_74479776247A_4u7
*******
.subckt PMI_0806_74479778268_6u8 1 2
Rp 1 2 3000
Cp 1 2 2p
Rs 1 N3 0.17
L1 N3 2 6.8u
.ends PMI_0806_74479778268_6u8
*******
.subckt PMI_0806_74479778310_10u 1 2
Rp 1 2 1500
Cp 1 2 2.8p
Rs 1 N3 0.25
L1 N3 2 10u
.ends PMI_0806_74479778310_10u
*******
.subckt PMI_0806_74479876124C_0u24 1 2
Rp 1 2 395.202
Cp 1 2 8.902p
Rs 1 N3 0.026
L1 N3 2 0.24u
.ends PMI_0806_74479876124C_0u24
*******
.subckt PMI_0806_74479876147_0u47 1 2
Rp 1 2 900
Cp 1 2 2.7p
Rs 1 N3 0.04
L1 N3 2 0.47u
.ends PMI_0806_74479876147_0u47
*******
.subckt PMI_0806_74479876147C_0u47 1 2
Rp 1 2 652.377
Cp 1 2 9.394p
Rs 1 N3 0.044
L1 N3 2 0.47u
.ends PMI_0806_74479876147C_0u47
*******
.subckt PMI_0806_74479876168_0u68 1 2
Rp 1 2 1200
Cp 1 2 3.2p
Rs 1 N3 0.06
L1 N3 2 0.68u
.ends PMI_0806_74479876168_0u68
*******
.subckt PMI_0806_74479876168C_0u68 1 2
Rp 1 2 1061.49
Cp 1 2 2.742p
Rs 1 N3 0.068
L1 N3 2 0.68u
.ends PMI_0806_74479876168C_0u68
*******
.subckt PMI_0806_74479876210_1u 1 2
Rp 1 2 1500
Cp 1 2 2.8p
Rs 1 N3 0.07
L1 N3 2 1u
.ends PMI_0806_74479876210_1u
*******
.subckt PMI_0806_74479876210C_1u 1 2
Rp 1 2 1132.58
Cp 1 2 2.879p
Rs 1 N3 0.075
L1 N3 2 1u
.ends PMI_0806_74479876210C_1u
*******
.subckt PMI_0806_74479876215C_1u5 1 2
Rp 1 2 2007.8
Cp 1 2 2.147p
Rs 1 N3 0.115
L1 N3 2 1.5u
.ends PMI_0806_74479876215C_1u5
*******
.subckt PMI_0806_74479876222C_2u2 1 2
Rp 1 2 3032.39
Cp 1 2 2.285p
Rs 1 N3 0.21
L1 N3 2 2.2u
.ends PMI_0806_74479876222C_2u2
*******
.subckt PMI_0806HS_74479776222_2u2 1 2
Rp 1 2 1600
Cp 1 2 1.8p
Rs 1 N3 0.11
L1 N3 2 2.2u
.ends PMI_0806HS_74479776222_2u2
*******
.subckt PMI_0806HS_74479776233_3u3 1 2
Rp 1 2 2400
Cp 1 2 1.7p
Rs 1 N3 0.13
L1 N3 2 3.3u
.ends PMI_0806HS_74479776233_3u3
*******
.subckt PMI_0806HS_74479776247_4u7 1 2
Rp 1 2 3000
Cp 1 2 1.8p
Rs 1 N3 0.16
L1 N3 2 4.7u
.ends PMI_0806HS_74479776247_4u7
*******
.subckt PMI_1008_74479888222_2u2 1 2
Rp 1 2 3600
Cp 1 2 2.6p
Rs 1 N3 0.2
L1 N3 2 2.2u
.ends PMI_1008_74479888222_2u2
*******
.subckt PMI_1008_74479888233_3u3 1 2
Rp 1 2 4000
Cp 1 2 2.7p
Rs 1 N3 0.25
L1 N3 2 3.3u
.ends PMI_1008_74479888233_3u3
*******
.subckt PMI_1008_74479888247_4u7 1 2
Rp 1 2 5500
Cp 1 2 3.2p
Rs 1 N3 0.38
L1 N3 2 4.7u
.ends PMI_1008_74479888247_4u7
*******
.subckt PMI_1008_74479888268_6u8 1 2
Rp 1 2 6500
Cp 1 2 3p
Rs 1 N3 0.45
L1 N3 2 6.8u
.ends PMI_1008_74479888268_6u8
*******
.subckt PMI_1008_74479888310_10u 1 2
Rp 1 2 6000
Cp 1 2 2.8p
Rs 1 N3 0.5
L1 N3 2 10u
.ends PMI_1008_74479888310_10u
*******
.subckt PMI_1008_74479889210_1u 1 2
Rp 1 2 2400
Cp 1 2 3p
Rs 1 N3 0.085
L1 N3 2 1u
.ends PMI_1008_74479889210_1u
*******
.subckt PMI_1008_74479889222_2u2 1 2
Rp 1 2 4400
Cp 1 2 2.7p
Rs 1 N3 0.25
L1 N3 2 2.2u
.ends PMI_1008_74479889222_2u2
*******
.subckt PMI_1008_74479889233_3u3 1 2
Rp 1 2 6000
Cp 1 2 2.8p
Rs 1 N3 0.25
L1 N3 2 3.3u
.ends PMI_1008_74479889233_3u3
*******
.subckt PMI_1008_74479889247_4u7 1 2
Rp 1 2 7500
Cp 1 2 2.8p
Rs 1 N3 0.4
L1 N3 2 4.7u
.ends PMI_1008_74479889247_4u7
*******
.subckt PMI_1008_74479889310_10u 1 2
Rp 1 2 7800
Cp 1 2 2.9p
Rs 1 N3 0.5
L1 N3 2 10u
.ends PMI_1008_74479889310_10u
*******
.subckt PMI_1008LP_74479787147A_0u47 1 2
Rp 1 2 300
Cp 1 2 3.1p
Rs 1 N3 0.04
L1 N3 2 0.47u
.ends PMI_1008LP_74479787147A_0u47
*******
.subckt PMI_1008LP_74479787210A_1u 1 2
Rp 1 2 1000
Cp 1 2 2p
Rs 1 N3 0.055
L1 N3 2 1u
.ends PMI_1008LP_74479787210A_1u
*******
.subckt PMI_1008LP_74479787215_1u5 1 2
Rp 1 2 1700
Cp 1 2 2.8p
Rs 1 N3 0.07
L1 N3 2 1.5u
.ends PMI_1008LP_74479787215_1u5
*******
.subckt PMI_1008LP_74479787222_2u2 1 2
Rp 1 2 2100
Cp 1 2 2.6p
Rs 1 N3 0.08
L1 N3 2 2.2u
.ends PMI_1008LP_74479787222_2u2
*******
.subckt PMI_1008LP_74479787233_3u3 1 2
Rp 1 2 2700
Cp 1 2 2.6p
Rs 1 N3 0.1
L1 N3 2 3.3u
.ends PMI_1008LP_74479787233_3u3
*******
.subckt PMI_1008LP_74479787247_4u7 1 2
Rp 1 2 3000
Cp 1 2 2.5p
Rs 1 N3 0.11
L1 N3 2 4.7u
.ends PMI_1008LP_74479787247_4u7
*******
.subckt PMI_1008LP_74479887210A_1u 1 2
Rp 1 2 950
Cp 1 2 2.6p
Rs 1 N3 0.1
L1 N3 2 1u
.ends PMI_1008LP_74479887210A_1u
*******
.subckt PMI_1008LP_74479887222A_2u2 1 2
Rp 1 2 1400
Cp 1 2 2.3p
Rs 1 N3 0.14
L1 N3 2 2.2u
.ends PMI_1008LP_74479887222A_2u2
*******
.subckt PMI_1008LP_74479887233A_3u3 1 2
Rp 1 2 2600
Cp 1 2 2p
Rs 1 N3 0.18
L1 N3 2 3.3u
.ends PMI_1008LP_74479887233A_3u3
*******
.subckt PMI_1008LP_74479887247A_4u7 1 2
Rp 1 2 2900
Cp 1 2 2p
Rs 1 N3 0.23
L1 N3 2 4.7u
.ends PMI_1008LP_74479887247A_4u7
*******
.subckt PMI_1008LP_74479887268A_6u8 1 2
Rp 1 2 4000
Cp 1 2 1.9p
Rs 1 N3 0.25
L1 N3 2 6.8u
.ends PMI_1008LP_74479887268A_6u8
*******
.subckt PMI_1008LP_74479887310A_10u 1 2
Rp 1 2 4200
Cp 1 2 1.9p
Rs 1 N3 0.3
L1 N3 2 10u
.ends PMI_1008LP_74479887310A_10u
*******
