**************************************************
* Manufacturer:           Wurth Elektronik 
* Kinds:                  SMT Common Mode Line Filter 
* Matchcode:              WE-SL5 HC 
* Library Type:           Pspice
* Version:                rev22a
* Created/modified by:    Ella      
* Date and Time:          2022-05-26
* Team:                   eiSos EDA Service  
* Contact:                libraries@we-online.com
**************************************************
* Copyright(C) 2022 Würth Elektronik eiSos GmbH & Co. KG
* All Rights Reserved.
**************************************************
* Disclaimer: While Würth Elektronik eiSos has made every reasonable effort to ensure the accuracy
* of the simulation models provided, Würth Elektronik eiSos does not guarantee the exemption of error on
* the simulation models, nor does Würth Elektronik eiSos guarantee that the simulation model is current.
* Würth Elektronik eiSos reserves the right to make any adjustments at any time without notice.
* Würth Elektronik eiSos expressly disclaims all implied warranties regarding this simulation model.
**************************************************
.SUBCKT  WE-SL5_HC  1  2  3  4  PARAMS:
+  DL3=8.06429777947728E-08
+  DC3=5.81235445708605E-13
+  DR3=1.17124465558291
+  DR4=2590.50229091806
+  Rdc=20.1m
+  ck=0.16p
+  L1=0.0000015
+  L2=0.000000051
+  L3=0.000000023
+  L4=9u
+  C1=.38p
+  RS1=1000
+  RS2=330
+  RS3=550
+  RS4=1170
+  R2=10
R_R47  N21893  N21911  {Rs3}
R_R43  N21425  N21441  {Rs2}
R_R4  N22217  N21871  {dR3}
L_L3  N21425  N21441  {L2}
L_L8  N21871  N21893  {L4}
Kn_K1  L_L1  L_L2  1
R_R37  N21241  4  {R2}
R_R48  N21911  N21925  {Rs2}
R_R44  N21441  4  {Rs1}
C_C4  N21871  N22231  {C1}
L_L1  N21441  4  {L1}
C_C1  N21207  N21217  {dC3}
L_L6  N21893  N21911  {L3}
R_R1  1  N21207  {Rdc}
L_L17  N21207  N21585  {dL3}
R_R49  N21925  3  {Rs1}
Kn_K5  L_L17  L_L18  
+  L_L19  L_L20  0.9999
R_R3  N21217  N21223  {dR3}
R_R55  N22231  3  {R2}
L_L4  N21911  N21925  {L2}
R_R2  N21207  N21223  {dR4}
L_L19  N21585  N21223  {dL3}
R_R6  2  N21857  {Rdc}
C_C2  N21731  N21585  {ck}
R_R500  N21731  N21585  1000g
Kn_K4  L_L7  L_L8  1
L_L2  N21925  3  {L1}
R_R41  N21223  N21413  {Rs4}
L_L7  N21223  N21413  {L4}
R_R5  N21857  N21871  {dR4}
L_L18  N21731  N21857  {dL3}
Kn_K3  L_L5  L_L6  1
R_R46  N21871  N21893  {Rs4}
R_R42  N21413  N21425  {Rs3}
L_L5  N21413  N21425  {L3}
C_C9  N21857  N22217  {dC3}
L_L20  N21871  N21731  {dL3}
Kn_K2  L_L3  L_L4  1
C_C3  N21223  N21241  {C1}
.ends  WE-SL5_HC
*****
.subckt  SL5HC_9381_744273102_11u  1  2  3  4
X1  1  2  3  4  WE-SL5_HC  PARAMS:
+  DL3=8.06429777947728E-08
+  DC3=5.81235445708605E-13
+  DR3=1.17124465558291
+  DR4=2590.50229091806
+  Rdc=20.1m
+  ck=0.16p
+  L1=0.0000015
+  L2=0.000000051
+  L3=0.000000023
+  L4=9u
+  C1=.38p
+  RS1=1000
+  RS2=330
+  RS3=550
+  RS4=1170
+  R2=10
.ends  SL5HC_9381_744273102_11u
*****
.subckt  SL5HC_9381_744273222_30u  1  2  3  4
X1  1  2  3  4  WE-SL5_HC  PARAMS:
+  DL3=1.9347898070121E-07
+  DC3=4.36997592474516E-13
+  DR3=70.4582642501494
+  DR4=5888.65352901148
+  Rdc=49.6m
+  ck=0.7p
+  L1=9.05935790096774E-06
+  L2=0.0000039126229725683
+  L3=8.40613114272888E-07
+  L4=0.0000160693825679297
+  C1=2.70788008553559E-13
+  RS1=1235.29664616861
+  RS2=2165.46826500008
+  RS3=2200
+  RS4=2000
+  R2=19.514735620877
.ends  SL5HC_9381_744273222_30u
*****
.subckt  SL5HC_9381_744273501_5u  1  2  3  4
X1  1  2  3  4  WE-SL5_HC  PARAMS:
+  DL3=0.0000000393
+  DC3=0.00000000000035
+  DR3=13
+  DR4=1671
+  Rdc=5.45m
+  ck=0.7p
+  L1=1.70052241211097E-07
+  L2=3.28274952647289E-06
+  L3=2.55081340176458E-07
+  L4=6.43263664471381E-07
+  C1=3.22930375411713E-13
+  RS1=16.058088983099
+  RS2=625.149891133385
+  RS3=78.6498315729959
+  RS4=660.530733763676
+  R2=18.8618617984175
.ends  SL5HC_9381_744273501_5u
*****
.subckt  SL5HC_9381_744273801_9u  1  2  3  4
X1  1  2  3  4  WE-SL5_HC  PARAMS:
+  DL3=6.08964329298372E-08
+  DC3=3.33707038180949E-13
+  DR3=152.176867768252
+  DR4=2646.73687491363
+  Rdc=11.14m
+  ck=.7p
+  L1=2.96000149874127E-06
+  L2=2.95115820659312E-06
+  L3=1.14971476193807E-06
+  L4=2.74879474900035E-07
+  C1=3.77271706082393E-13
+  RS1=258.50646466325
+  RS2=1133.43225325348
+  RS3=261.645717438879
+  RS4=980.665595606167
+  R2=26.5362339479427
.ends  SL5HC_9381_744273801_9u
