**************************************************
* Manufacturer:           Wurth Elektronik 
* Kinds:                  Common Mode Power Line Choke
* Matchcode:              WE-TFC 
* Library Type:           Pspice
* Version:                rev22a
* Created/modified by:    Ella      
* Date and Time:          2022-05-26
* Team:                   eiSos EDA Service  
* Contact:                libraries@we-online.com
**************************************************
* Copyright(C) 2022 Würth Elektronik eiSos GmbH & Co. KG
* All Rights Reserved.
**************************************************
* Disclaimer: While Würth Elektronik eiSos has made every reasonable effort to ensure the accuracy
* of the simulation models provided, Würth Elektronik eiSos does not guarantee the exemption of error on
* the simulation models, nor does Würth Elektronik eiSos guarantee that the simulation model is current.
* Würth Elektronik eiSos reserves the right to make any adjustments at any time without notice.
* Würth Elektronik eiSos expressly disclaims all implied warranties regarding this simulation model.
**************************************************
.SUBCKT  TFC  1  2  3  4  PARAMS:
+  L1=0.00133660190142394
+  L2=0.00066701705440674
+  L3=0.000693004088894302
+  L4=0.000224826199486956
+  L5=6.65504570380959E-08
+  L6=2.78498066135292E-09
+  C1=2.46181731944311E-12
+  C2=6.73670849014524E-12
+  C3=5.97097127528123E-12
+  RS1=1337.81419587115
+  RS2=3155.91701442969
+  RS3=192.411087825075
+  RS4=5573.70200019057
+  RS5=52.0826799302894
+  RS6=929.380663145605
+  R2=39.6163187388244
+  DL3=0.000000738
+  DC3=0.00000000000205
+  DL4=0.00000000811
+  DC4=0.0000000000000833
+  DR3=0.48
+  DR4=8680
+  DR5=0.58
+  DR6=266
+  Rdc=0.067
+  ck=1.6pF
L_L22  N15506  N16048  {dL3}
C_C18  N16464  N16990  {dC3}
L_L30  N16272  N16464  {dL3}
L_L28  N15832  N15848  {L2}
L_L36  N16554  N16568  {L2}
R_R33  N17026  4  {R2}
C_C15  N15564  N15574  {C1}
R_R24  N15564  N15820  {Rs4}
R_R31  N16568  4  {Rs1}
Kn_K13  L_L28  L_L36  1
C_C13  N15506  N15516  {dC3}
R_R20  N16990  N16478  {dR3}
L_L23  N16048  N15522  {dL3}
L_L31  N16478  N16272  {dL3}
L_L29  N15848  3  {L1}
R_R32  N15574  3  {R2}
L_L37  N16568  4  {L1}
R_R25  N15820  N15832  {Rs3}
Kn_K14  L_L29  L_L37  1
R_R12  N15516  N15522  {dR3}
C_C19  N16478  N17004  {dC4}
L_L24  N15522  N16070  {dL4}
L_L32  N16278  N16478  {dL4}
L_L21  N15544  N15556  {L6}
C_C21  N15544  N15556  {C3}
R_R26  N15832  N15848  {Rs2}
R_R17  2  N16464  {Rdc}
C_C16  N16272  N16048  {ck}
C_C14  N15522  N15538  {dC4}
R_R21  N17004  N16498  {dR5}
L_L25  N16070  N15544  {dL4}
L_L33  N16498  N16278  {dL4}
Kn_K9  L_L24  L_L25  
+  L_L32  L_L33  0.9999
R_R14  1  N15506  {Rdc}
R_R28  N16522  N16536  {Rs4}
R_R27  N15848  3  {Rs1}
C_C17  N16278  N16070  {ck}
R_R18  N16464  N16478  {dR4}
L_L34  N16522  N16536  {L4}
R_R13  N15538  N15544  {dR5}
L_L26  N15564  N15820  {L4}
R_R29  N16536  N16554  {Rs3}
R_R15  N15506  N15522  {dR4}
Kn_K11  L_L26  L_L34  1
R_R19  N16478  N16498  {dR6}
Kn_K8  L_L22  L_L23  
+  L_L30  L_L31  0.9999
Kn_K10  L_L21  L_L41  1
L_L27  N15820  N15832  {L3}
L_L35  N16536  N16554  {L3}
R_R22  N15544  N15556  {Rs6}
C_C20  N16522  N17026  {C1}
R_R30  N16554  N16568  {Rs2}
R_R16  N15522  N15544  {dR6}
Kn_K12  L_L27  L_L35  1
R_R35  N17743  N16522  {Rs5}
R_R34  N15556  N15564  {Rs5}
L_L40  N17743  N16522  {L5}
L_L39  N15556  N15564  {L5}
C_C24  N17743  N16522  {C2}
C_C23  N15556  N15564  {C2}
R_R36  N16498  N17743  {Rs6}
L_L41  N16498  N17743  {L6}
C_C25  N16498  N17743  {C3}
Kn_K15  L_L39  L_L40  1
.ends  TFC
*****
.SUBCKT  TFC_UU98V_744862018_1m8  1  2  3  4
X1  1  2  3  4  TFC  PARAMS:
+  L1=0.00123660190142394
+  L2=0.00006701705440674
+  L3=0.000493004088894302
+  L4=0.000224826199486956
+  L5=4.65504570380959E-08
+  L6=2.78498066135292E-08
+  C1=8.46181731944311E-12
+  C2=3.73670849014524E-12
+  C3=1.27097127528123E-12
+  RS1=19837.8141958711
+  RS2=7155.91701442969
+  RS3=192.411087825075
+  RS4=5573.70200019057
+  RS5=2.0826799302894
+  RS6=1129.3806631456
+  R2=39.6163187388244
+  DL3=0.0000009
+  DC3=0.0000000000097
+  DL4=0.00000000311
+  DC4=0.0000000000001833
+  DR3=0.48
+  DR4=8680
+  DR5=0.58
+  DR6=366
+  Rdc=0.31
+  ck=3.4pF
.ends  TFC_UU98V_744862018_1m8
*****
.SUBCKT  TFC_UU98V_744862033_3m3  1  2  3  4
X1  1  2  3  4  TFC  PARAMS:
+  L1=0.00323660190142394
+  L2=0.00006701705440674
+  L3=0.000493004088894302
+  L4=0.000224826199486956
+  L5=2.65504570380959E-08
+  L6=2.78498066135292E-08
+  C1=8.46181731944311E-12
+  C2=3.73670849014524E-12
+  C3=1.27097127528123E-12
+  RS1=49837.8141958711
+  RS2=7155.91701442969
+  RS3=192.411087825075
+  RS4=5573.70200019057
+  RS5=200.082679930289
+  RS6=1129.3806631456
+  R2=6.6163187388244
+  DL3=0.000002
+  DC3=0.0000000000099
+  DL4=0.00000000611
+  DC4=0.0000000000001333
+  DR3=0.48
+  DR4=11080
+  DR5=0.58
+  DR6=366
+  Rdc=0.51
+  ck=3.4pF
.ends  TFC_UU98V_744862033_3m3
*****
.SUBCKT  TFC_UU98V_744862056_5m6  1  2  3  4
X1  1  2  3  4  TFC  PARAMS:
+  L1=0.00553660190142394
+  L2=0.00006701705440674
+  L3=0.000493004088894302
+  L4=0.000224826199486956
+  L5=3.25504570380959E-08
+  L6=2.78498066135292E-08
+  C1=8.46181731944311E-12
+  C2=3.73670849014524E-12
+  C3=1.27097127528123E-12
+  RS1=92837.8141958711
+  RS2=7155.91701442969
+  RS3=192.411087825075
+  RS4=5573.70200019057
+  RS5=200.082679930289
+  RS6=1129.3806631456
+  R2=6.6163187388244
+  DL3=0.0000032
+  DC3=0.0000000000099
+  DL4=0.00000000311
+  DC4=0.0000000000001033
+  DR3=0.48
+  DR4=14080
+  DR5=0.58
+  DR6=266
+  Rdc=0.83
+  ck=3.4pF
.ends  TFC_UU98V_744862056_5m6
*****
.SUBCKT  TFC_UU98V_744862082_8m2  1  2  3  4
X1  1  2  3  4  TFC  PARAMS:
+  L1=0.00803660190142394
+  L2=0.00008701705440674
+  L3=0.000493004088894302
+  L4=0.000224826199486956
+  L5=3.25504570380959E-08
+  L6=2.78498066135292E-08
+  C1=9.06181731944311E-12
+  C2=3.73670849014524E-12
+  C3=1.27097127528123E-12
+  RS1=142837.814195871
+  RS2=7155.91701442969
+  RS3=192.411087825075
+  RS4=5573.70200019057
+  RS5=200.082679930289
+  RS6=1129.3806631456
+  R2=6.6163187388244
+  DL3=0.0000052
+  DC3=0.0000000000099
+  DL4=0.00000000361
+  DC4=0.0000000000001033
+  DR3=0.48
+  DR4=15080
+  DR5=0.58
+  DR6=166
+  Rdc=1.3
+  ck=3.4pF
.ends  TFC_UU98V_744862082_8m2
*****
.SUBCKT  TFC_UU98V_744862120_12m  1  2  3  4
X1  1  2  3  4  TFC  PARAMS:
+  L1=0.0125366019014239
+  L2=0.00008701705440674
+  L3=0.000493004088894302
+  L4=0.000224826199486956
+  L5=2.25504570380959E-08
+  L6=2.78498066135292E-08
+  C1=1.09181731944311E-11
+  C2=3.73670849014524E-12
+  C3=1.27097127528123E-12
+  RS1=245837.814195871
+  RS2=7155.91701442969
+  RS3=192.411087825075
+  RS4=5573.70200019057
+  RS5=70.0826799302894
+  RS6=1129.3806631456
+  R2=8.6163187388244
+  DL3=0.0000075
+  DC3=0.000000000012
+  DL4=0.00000000361
+  DC4=0.0000000000001033
+  DR3=0.48
+  DR4=15080
+  DR5=0.58
+  DR6=126
+  Rdc=2
+  ck=3.4pF
.ends  TFC_UU98V_744862120_12m
*****
.SUBCKT  TFC_UU98V_744862180_18m  1  2  3  4
X1  1  2  3  4  TFC  PARAMS:
+  L1=0.0175366019014239
+  L2=0.00008701705440674
+  L3=0.000493004088894302
+  L4=0.000224826199486956
+  L5=2.25504570380959E-08
+  L6=2.78498066135292E-08
+  C1=9.39181731944311E-12
+  C2=3.73670849014524E-12
+  C3=1.27097127528123E-12
+  RS1=345837.814195871
+  RS2=7155.91701442969
+  RS3=192.411087825075
+  RS4=5573.70200019057
+  RS5=70.0826799302894
+  RS6=1129.3806631456
+  R2=8.6163187388244
+  DL3=0.0000115
+  DC3=0.0000000000105
+  DL4=0.00000000361
+  DC4=0.0000000000001033
+  DR3=0.48
+  DR4=20080
+  DR5=0.58
+  DR6=126
+  Rdc=3.1
+  ck=3.4pF
.ends  TFC_UU98V_744862180_18m
*****
.SUBCKT  TFC_UU98V_744862250_25m  1  2  3  4
X1  1  2  3  4  TFC  PARAMS:
+  L1=0.0255366019014239
+  L2=0.00008701705440674
+  L3=0.000493004088894302
+  L4=0.000224826199486956
+  L5=2.25504570380959E-08
+  L6=2.78498066135292E-08
+  C1=8.69181731944311E-12
+  C2=3.73670849014524E-12
+  C3=1.27097127528123E-12
+  RS1=705837.814195871
+  RS2=7155.91701442969
+  RS3=192.411087825075
+  RS4=5573.70200019057
+  RS5=70.0826799302894
+  RS6=829.380663145605
+  R2=23.6163187388244
+  DL3=0.000016
+  DC3=0.00000000001
+  DL4=0.00000000361
+  DC4=0.0000000000001033
+  DR3=0.48
+  DR4=21080
+  DR5=0.58
+  DR6=26
+  Rdc=3.6
+  ck=3.4pF
.ends  TFC_UU98V_744862250_25m
*****
.SUBCKT  TFC_UU98V_744862100_10m  1  2  3  4
X1  1  2  3  4  TFC  PARAMS:
+  L1=0.0105366019014239
+  L2=0.00020701705440674
+  L3=0.200030040888943
+  L4=0.000284826199486956
+  L5=3.25504570380959E-08
+  L6=2.78498066135292E-08
+  C1=1.20618173194431E-11
+  C2=3.73670849014524E-12
+  C3=1.27097127528123E-12
+  RS1=167000.814195871
+  RS2=7155.91701442969
+  RS3=192.411087825075
+  RS4=5573.70200019057
+  RS5=200.082679930289
+  RS6=1129.3806631456
+  R2=6.6163187388244
+  DL3=0.00000595
+  DC3=0.00000000001195
+  DL4=0.00000000361
+  DC4=0.0000000000003033
+  DR3=0.48
+  DR4=15700
+  DR5=0.58
+  DR6=200
+  Rdc=1.65
+  ck=3.4pF
.ends  TFC_UU98V_744862100_10m
*****
.SUBCKT  TFC_UU98H_744861018_1m8  1  2  3  4
X1  1  2  3  4  TFC  PARAMS:
+  L1=0.00193660190142394
+  L2=0.00002701705440674
+  L3=0.0000023004088894302
+  L4=0.000001826199486956
+  L5=4.65504570380959E-08
+  L6=2.78498066135292E-08
+  C1=8.46181731944311E-12
+  C2=3.73670849014524E-12
+  C3=1.57097127528123E-12
+  RS1=12837.8141958711
+  RS2=155.91701442969
+  RS3=192.411087825075
+  RS4=573.70200019057
+  RS5=2.0826799302894
+  RS6=1629.3806631456
+  R2=3.6163187388244
+  DL3=0.0000009
+  DC3=0.000000000008
+  DL4=0.00000000481
+  DC4=5.33E-18
+  DR3=0.048
+  DR4=9280
+  DR5=11.8
+  DR6=766
+  Rdc=0.31
+  ck=2.32pF
.ends  TFC_UU98H_744861018_1m8
*****
.SUBCKT  TFC_UU98H_744861033_3m3  1  2  3  4
X1  1  2  3  4  TFC  PARAMS:
+  L1=0.00323660190142394
+  L2=0.00006701705440674
+  L3=0.000493004088894302
+  L4=0.000224826199486956
+  L5=1.65504570380959E-08
+  L6=1.78498066135292E-08
+  C1=8.46181731944311E-12
+  C2=2.73670849014524E-12
+  C3=1.27097127528123E-12
+  RS1=49837.8141958711
+  RS2=7155.91701442969
+  RS3=192.411087825075
+  RS4=5573.70200019057
+  RS5=200.082679930289
+  RS6=1129.3806631456
+  R2=16.6163187388244
+  DL3=0.0000019
+  DC3=0.000000000007
+  DL4=0.0000000075
+  DC4=0.0000000000001333
+  DR3=0.48
+  DR4=12780
+  DR5=0.58
+  DR6=266
+  Rdc=0.51
+  ck=2.32pF
.ends  TFC_UU98H_744861033_3m3
*****
.SUBCKT  TFC_UU98H_744861056_5m6  1  2  3  4
X1  1  2  3  4  TFC  PARAMS:
+  L1=0.00553660190142394
+  L2=0.00006701705440674
+  L3=0.000493004088894302
+  L4=0.000224826199486956
+  L5=1.25504570380959E-08
+  L6=2.78498066135292E-08
+  C1=8.06181731944311E-12
+  C2=3.73670849014524E-12
+  C3=1.27097127528123E-12
+  RS1=57837.8141958711
+  RS2=7155.91701442969
+  RS3=192.411087825075
+  RS4=5573.70200019057
+  RS5=200.082679930289
+  RS6=1129.3806631456
+  R2=36.6163187388244
+  DL3=0.0000032
+  DC3=0.0000000000078
+  DL4=0.00000000311
+  DC4=0.0000000000001033
+  DR3=0.48
+  DR4=14080
+  DR5=0.58
+  DR6=366
+  Rdc=0.83
+  ck=2.32pF
.ends  TFC_UU98H_744861056_5m6
*****
.SUBCKT  TFC_UU98H_744861082_8m2  1  2  3  4
X1  1  2  3  4  TFC  PARAMS:
+  L1=0.00823660190142394
+  L2=0.00008701705440674
+  L3=0.000493004088894302
+  L4=0.000224826199486956
+  L5=3.25504570380959E-08
+  L6=2.78498066135292E-08
+  C1=8.16181731944311E-12
+  C2=1.73670849014524E-12
+  C3=1.27097127528123E-12
+  RS1=110837.814195871
+  RS2=7155.91701442969
+  RS3=192.411087825075
+  RS4=5573.70200019057
+  RS5=20.0826799302894
+  RS6=729.380663145605
+  R2=16.6163187388244
+  DL3=0.000005
+  DC3=0.0000000000077
+  DL4=0.00000000361
+  DC4=0.0000000000001033
+  DR3=0.48
+  DR4=16280
+  DR5=0.58
+  DR6=166
+  Rdc=1.3
+  ck=2.32pF
.ends  TFC_UU98H_744861082_8m2
*****
.SUBCKT  TFC_UU98H_744861100_10m  1  2  3  4
X1  1  2  3  4  TFC  PARAMS:
+  L1=0.0102366019014239
+  L2=0.00008701705440674
+  L3=0.000493004088894302
+  L4=0.000224826199486956
+  L5=3.25504570380959E-08
+  L6=2.78498066135292E-08
+  C1=1.21618173194431E-11
+  C2=1.73670849014524E-12
+  C3=1.27097127528123E-12
+  RS1=170837.814195871
+  RS2=7155.91701442969
+  RS3=192.411087825075
+  RS4=5573.70200019057
+  RS5=20.0826799302894
+  RS6=1029.3806631456
+  R2=1.6163187388244
+  DL3=0.0000068
+  DC3=0.0000000000105
+  DL4=0.00000000461
+  DC4=0.0000000000000833
+  DR3=0.48
+  DR4=16280
+  DR5=0.58
+  DR6=466
+  Rdc=1.65
+  ck=2.32pF
.ends  TFC_UU98H_744861100_10m
*****
.SUBCKT  TFC_UU98H_744861120_12m  1  2  3  4
X1  1  2  3  4  TFC  PARAMS:
+  L1=0.0125366019014239
+  L2=0.00008701705440674
+  L3=0.000493004088894302
+  L4=0.000224826199486956
+  L5=2.25504570380959E-08
+  L6=2.78498066135292E-08
+  C1=1.49181731944311E-11
+  C2=3.73670849014524E-12
+  C3=1.27097127528123E-12
+  RS1=275837.814195871
+  RS2=7155.91701442969
+  RS3=192.411087825075
+  RS4=5573.70200019057
+  RS5=70.0826799302894
+  RS6=1129.3806631456
+  R2=15.6163187388244
+  DL3=0.0000081
+  DC3=0.000000000013
+  DL4=0.00000000361
+  DC4=0.0000000000001033
+  DR3=0.48
+  DR4=16080
+  DR5=0.58
+  DR6=96
+  Rdc=2
+  ck=2.32pF
.ends  TFC_UU98H_744861120_12m
*****
.SUBCKT  TFC_UU98H_744861180_18m  1  2  3  4
X1  1  2  3  4  TFC  PARAMS:
+  L1=0.0175366019014239
+  L2=0.00008701705440674
+  L3=0.000493004088894302
+  L4=0.000224826199486956
+  L5=2.25504570380959E-08
+  L6=2.78498066135292E-08
+  C1=1.59918173194431E-11
+  C2=3.73670849014524E-12
+  C3=1.27097127528123E-12
+  RS1=331837.814195871
+  RS2=7155.91701442969
+  RS3=192.411087825075
+  RS4=5573.70200019057
+  RS5=70.0826799302894
+  RS6=1129.3806631456
+  R2=8.6163187388244
+  DL3=0.0000115
+  DC3=0.0000000000155
+  DL4=0.00000000361
+  DC4=0.0000000000001033
+  DR3=0.48
+  DR4=17080
+  DR5=0.58
+  DR6=126
+  Rdc=3.1
+  ck=2.32pF
.ends  TFC_UU98H_744861180_18m
*****
.SUBCKT  TFC_UU98H_744861250_25m  1  2  3  4
X1  1  2  3  4  TFC  PARAMS:
+  L1=0.0335366019014239
+  L2=0.00008701705440674
+  L3=0.000493004088894302
+  L4=0.000224826199486956
+  L5=2.25504570380959E-08
+  L6=2.78498066135292E-08
+  C1=1.36918173194431E-11
+  C2=3.73670849014524E-12
+  C3=1.27097127528123E-12
+  RS1=555837.814195871
+  RS2=7155.91701442969
+  RS3=192.411087825075
+  RS4=5573.70200019057
+  RS5=70.0826799302894
+  RS6=829.380663145605
+  R2=23.6163187388244
+  DL3=0.000016
+  DC3=0.000000000013
+  DL4=0.00000000361
+  DC4=0.0000000000001033
+  DR3=0.48
+  DR4=21080
+  DR5=0.58
+  DR6=26
+  Rdc=3.6
+  ck=2.32pF
.ends  TFC_UU98H_744861250_25m
