**************************************************
* Manufacturer:           Würth Elektronik
* Kinds:                  Optocoupler Phototransistor
* Matchcode:              WL-OCPT
* Library Type:           Pspice
* Version:                rev25a
* Created/modified by:    Ella      
* Date and Time:          2025-05-30
* Team:                   eiSos EDA Service  
* Contact:                libraries@we-online.com
**************************************************
* Copyright(C) 2025 Würth Elektronik eiSos GmbH & Co. KG
* All Rights Reserved.
**************************************************
* Disclaimer: While Würth Elektronik eiSos has made every reasonable effort to ensure the accuracy
* of the simulation models provided, Würth Elektronik eiSos does not guarantee the exemption of error on
* the simulation models, nor does Würth Elektronik eiSos guarantee that the simulation model is current.
* Würth Elektronik eiSos reserves the right to make any adjustments at any time without notice.
* Würth Elektronik eiSos expressly disclaims all implied warranties regarding this simulation model.
**************************************************
**$ENCRYPTED_LIB
**$INTERFACE
.SUBCKT OCPT_Series_10x_140105146000 A K C E 
$CDNENCSTART_ADV2
17f62b1fb318c25603aeb85644ae98a5d179ef807807791f6459efacb9d7ffc37a831b146dc0f06bb1ef275619162e6d8f7ad0dc708bf15ae1a1d5bd0ae623b2
cd5040d5e253d8bb0f91377b0609cc3bc81d0721db1b02fdf5a60c72692817a6ec315c41ad990385cdba363a69c5b87a9eef2fbcd7f8e94604f4bf3d1ed82ab0
583edb0abd85c605d92f43d3c8943603001619d740483e66d4d0ca889c9a4fa8f8ee188aefe361ecd37810250f630730b4e92e9ecc419e4e1dc38e35ca221de0
5ba563db231ff6f17da101a7e91ad86a60b826fb4408d139066d3977a206e6d34508895d53b6f8ead55338e0bc3303f6da612c2160896b00feab8824be676f37
869972ce767bd9c439c9ef7f8cdc3146da7516b15c4294d25bb6305f11824ef5e51f19db105f21a0772c1fa72955c0e32f37bd6a431601f4d28036e5c7853b91
1be1ff1783af1c4f60b6df0304b5f38860b826fb4408d139066d3977a206e6d34508895d53b6f8ead55338e0bc3303f6da612c2160896b00feab8824be676f37
a31642d2c8547e4c9e41b5cf4efe2326001619d740483e66d4d0ca889c9a4fa8f8ee188aefe361ecd37810250f630730b4e92e9ecc419e4e1dc38e35ca221de0
e9a01d01798e378154317316d20cb2fe98e12f57058a787b68d9c5a0d98ad2fe8531f5137f076ec685ef49728b0986ecc2ed691349dba041104e0fbd430b07dd

6356a88aebad540231a9315d1bb5ed1e60b826fb4408d139066d3977a206e6d34508895d53b6f8ead55338e0bc3303f6da612c2160896b00feab8824be676f37
e517237d902b3befd2462932f9e3a3521015ce82345eeaa6b6a061382d5a6904d7d059a17552401bbfb6d191a917a514f9ea9ba6aa5a5c64f058afc0d19f19c0
23204c3025f1ca59c21d0a616705f3935f2832c042dfa2c5ebd3d48493f5833e01f1840f5b4d6cba1d83322a9b6f629e0bfffa08f280fa3e7b4b251084999032
6ca8e701a3925ada9f8177219747d26dd185c23be95b4244af14012e1a9ddbfc26d60244e69a4aad006f2d993bc668b680aba9f2f1191f40883a69ca0d3ab765
54c33b1af7f1a8adbcb370ec1bed11c72a5038b4698f17ad50649249c62602dab097e95e7f711f7814c2c2c87bd94dcdf8b9cde1ab2f884beac022703eb834e9
04a052e8ae9eacd4a7033bca128b1f57f31902dc7a2d0c2b81dd90cf3d929514001619d740483e66d4d0ca889c9a4fa8a7b3cbcc64e55c18ca03443e7108d392
553d55d94b45bb65a3828361c361b84a911644eeb848080ec7873c457d87c1d9da7516b15c4294d25bb6305f11824ef5e79f598db7e5c9079e034b841bcd50c5

a80eb6ec82b272528a2d5cabc246481a70b25551c41b7f241eefc80a6291b8db30022b95bd090163c72243d21cff56f1a43dae20bf1a45b00ee0b177744bf42f
3ad090b6d5680f84c56011bdf086b001d185c23be95b4244af14012e1a9ddbfc26d60244e69a4aad006f2d993bc668b680aba9f2f1191f40883a69ca0d3ab765
671be3d380d52253fc74d1a5ec14db18da7516b15c4294d25bb6305f11824ef5e51f19db105f21a0772c1fa72955c0e32f37bd6a431601f4d28036e5c7853b91
c6073a58c14d0034f6c8bdf146120267c81d0721db1b02fdf5a60c72692817a6ec315c41ad990385cdba363a69c5b87a9eef2fbcd7f8e94604f4bf3d1ed82ab0
81cba74155cdb08b204d49d4da28d7b7d185c23be95b4244af14012e1a9ddbfc26d60244e69a4aad006f2d993bc668b680aba9f2f1191f40883a69ca0d3ab765
135d74f335718c5c54a312fc9dc7070a1015ce82345eeaa6b6a061382d5a6904d7d059a17552401bbfb6d191a917a514f9ea9ba6aa5a5c64f058afc0d19f19c0
7de0cb2b332e57503de87705dafd695d001619d740483e66d4d0ca889c9a4fa8f8ee188aefe361ecd37810250f630730b4e92e9ecc419e4e1dc38e35ca221de0
63ca97ae41d3ea8fe51cc0e6270d2c0b6773248bbc31dc42ed2ab8b1a1b246a4ffcfa6ed3321c5dfa5a9368a2591002cdedcb16f735adcc32c51ac6faff31b14
70ffe451e229fe986939013872bcbe7cbbcd25a80cf882948c1ed30f824437882e304de8de8487c6eb9fe16a4932dff2d346ca0dfd09addd2a2ef02b4b60e60c
30dd9b405ae472a235675b73183269a03fc0bf274729c9a8f18612275c64dcbc01f5564ae33722dde9dd93001234dc1025f56507f19511e0d94a51ed601bf5a0
3cba3cc425c2411547c1ba410bf6e4ed3fc0bf274729c9a8f18612275c64dcbc01f5564ae33722dde9dd93001234dc1025f56507f19511e0d94a51ed601bf5a0
c30c6a2b39ee434fa9c42731bf3558461b4a30aeaa5a16d6f51a1d7f7d811f57b0666e13c4183360cba6a3d47dd1e3921ae53c3b2cb707bd431f476fd32ccb45
9d6ee12c8300affaef72aa7ecb0b56be6f0de77a76185aeec20ced150f1de09ef3e5fa66ddecf9fdef34f27ccbac8848d8c8a7a8824cd7d73549dc3e03008501
8f22abac394b682356a2cc769abdc39dbbcd25a80cf882948c1ed30f824437882e304de8de8487c6eb9fe16a4932dff2d346ca0dfd09addd2a2ef02b4b60e60c
1896d9dce4cb8a546104c39b54982bc376c1ab3aae1fc9ed28c8cf5c3dd8b898162a7acd53f3f2612dd50d97617e43a7a619b0e02dcbee4407c297ad4a2950ad
$CDNENCFINISH_ADV2
.ends
.SUBCKT OCPT_Series_10x_140106146000 A K C E 
$CDNENCSTART_ADV2
17f62b1fb318c25603aeb85644ae98a5d179ef807807791f6459efacb9d7ffc37a831b146dc0f06bb1ef275619162e6d8f7ad0dc708bf15ae1a1d5bd0ae623b2
cd5040d5e253d8bb0f91377b0609cc3bc81d0721db1b02fdf5a60c72692817a6ec315c41ad990385cdba363a69c5b87a9eef2fbcd7f8e94604f4bf3d1ed82ab0
583edb0abd85c605d92f43d3c8943603001619d740483e66d4d0ca889c9a4fa8f8ee188aefe361ecd37810250f630730b4e92e9ecc419e4e1dc38e35ca221de0
5ba563db231ff6f17da101a7e91ad86a60b826fb4408d139066d3977a206e6d34508895d53b6f8ead55338e0bc3303f6da612c2160896b00feab8824be676f37
869972ce767bd9c439c9ef7f8cdc3146da7516b15c4294d25bb6305f11824ef5e51f19db105f21a0772c1fa72955c0e32f37bd6a431601f4d28036e5c7853b91
1be1ff1783af1c4f60b6df0304b5f38860b826fb4408d139066d3977a206e6d34508895d53b6f8ead55338e0bc3303f6da612c2160896b00feab8824be676f37
a31642d2c8547e4c9e41b5cf4efe2326001619d740483e66d4d0ca889c9a4fa8f8ee188aefe361ecd37810250f630730b4e92e9ecc419e4e1dc38e35ca221de0
e9a01d01798e378154317316d20cb2fe98e12f57058a787b68d9c5a0d98ad2fe8531f5137f076ec685ef49728b0986ecc2ed691349dba041104e0fbd430b07dd

6356a88aebad540231a9315d1bb5ed1e60b826fb4408d139066d3977a206e6d34508895d53b6f8ead55338e0bc3303f6da612c2160896b00feab8824be676f37
e517237d902b3befd2462932f9e3a3521015ce82345eeaa6b6a061382d5a6904d7d059a17552401bbfb6d191a917a514f9ea9ba6aa5a5c64f058afc0d19f19c0
23204c3025f1ca59c21d0a616705f3935f2832c042dfa2c5ebd3d48493f5833e01f1840f5b4d6cba1d83322a9b6f629e0bfffa08f280fa3e7b4b251084999032
6ca8e701a3925ada9f8177219747d26dd185c23be95b4244af14012e1a9ddbfc26d60244e69a4aad006f2d993bc668b680aba9f2f1191f40883a69ca0d3ab765
54c33b1af7f1a8adbcb370ec1bed11c72a5038b4698f17ad50649249c62602dab097e95e7f711f7814c2c2c87bd94dcdf8b9cde1ab2f884beac022703eb834e9
04a052e8ae9eacd4a7033bca128b1f57f31902dc7a2d0c2b81dd90cf3d929514001619d740483e66d4d0ca889c9a4fa8a7b3cbcc64e55c18ca03443e7108d392
553d55d94b45bb65a3828361c361b84a911644eeb848080ec7873c457d87c1d9da7516b15c4294d25bb6305f11824ef5e79f598db7e5c9079e034b841bcd50c5

a80eb6ec82b272528a2d5cabc246481a70b25551c41b7f241eefc80a6291b8db30022b95bd090163c72243d21cff56f1a43dae20bf1a45b00ee0b177744bf42f
3ad090b6d5680f84c56011bdf086b001d185c23be95b4244af14012e1a9ddbfc26d60244e69a4aad006f2d993bc668b680aba9f2f1191f40883a69ca0d3ab765
671be3d380d52253fc74d1a5ec14db18da7516b15c4294d25bb6305f11824ef5e51f19db105f21a0772c1fa72955c0e32f37bd6a431601f4d28036e5c7853b91
c6073a58c14d0034f6c8bdf146120267c81d0721db1b02fdf5a60c72692817a6ec315c41ad990385cdba363a69c5b87a9eef2fbcd7f8e94604f4bf3d1ed82ab0
81cba74155cdb08b204d49d4da28d7b7d185c23be95b4244af14012e1a9ddbfc26d60244e69a4aad006f2d993bc668b680aba9f2f1191f40883a69ca0d3ab765
135d74f335718c5c54a312fc9dc7070a1015ce82345eeaa6b6a061382d5a6904d7d059a17552401bbfb6d191a917a514f9ea9ba6aa5a5c64f058afc0d19f19c0
7de0cb2b332e57503de87705dafd695d001619d740483e66d4d0ca889c9a4fa8f8ee188aefe361ecd37810250f630730b4e92e9ecc419e4e1dc38e35ca221de0
63ca97ae41d3ea8fe51cc0e6270d2c0b6773248bbc31dc42ed2ab8b1a1b246a4ffcfa6ed3321c5dfa5a9368a2591002cdedcb16f735adcc32c51ac6faff31b14
70ffe451e229fe986939013872bcbe7cbbcd25a80cf882948c1ed30f824437882e304de8de8487c6eb9fe16a4932dff2d346ca0dfd09addd2a2ef02b4b60e60c
30dd9b405ae472a235675b73183269a03fc0bf274729c9a8f18612275c64dcbc01f5564ae33722dde9dd93001234dc1025f56507f19511e0d94a51ed601bf5a0
3cba3cc425c2411547c1ba410bf6e4ed3fc0bf274729c9a8f18612275c64dcbc01f5564ae33722dde9dd93001234dc1025f56507f19511e0d94a51ed601bf5a0
c30c6a2b39ee434fa9c42731bf3558461b4a30aeaa5a16d6f51a1d7f7d811f57e5211b9f2b93b5100067777f3a56295f1ae53c3b2cb707bd431f476fd32ccb45
9d6ee12c8300affaef72aa7ecb0b56be6f0de77a76185aeec20ced150f1de09ef3e5fa66ddecf9fdef34f27ccbac8848d8c8a7a8824cd7d73549dc3e03008501
8f22abac394b682356a2cc769abdc39dbbcd25a80cf882948c1ed30f824437882e304de8de8487c6eb9fe16a4932dff2d346ca0dfd09addd2a2ef02b4b60e60c
1896d9dce4cb8a546104c39b54982bc376c1ab3aae1fc9ed28c8cf5c3dd8b898162a7acd53f3f2612dd50d97617e43a7a619b0e02dcbee4407c297ad4a2950ad
$CDNENCFINISH_ADV2
.ends
.SUBCKT OCPT_Series_10x_140107146000 A K C E 
$CDNENCSTART_ADV2
17f62b1fb318c25603aeb85644ae98a5d179ef807807791f6459efacb9d7ffc37a831b146dc0f06bb1ef275619162e6d8f7ad0dc708bf15ae1a1d5bd0ae623b2
cd5040d5e253d8bb0f91377b0609cc3bc81d0721db1b02fdf5a60c72692817a6ec315c41ad990385cdba363a69c5b87a9eef2fbcd7f8e94604f4bf3d1ed82ab0
583edb0abd85c605d92f43d3c8943603001619d740483e66d4d0ca889c9a4fa8f8ee188aefe361ecd37810250f630730b4e92e9ecc419e4e1dc38e35ca221de0
5ba563db231ff6f17da101a7e91ad86a60b826fb4408d139066d3977a206e6d34508895d53b6f8ead55338e0bc3303f6da612c2160896b00feab8824be676f37
869972ce767bd9c439c9ef7f8cdc3146da7516b15c4294d25bb6305f11824ef5e51f19db105f21a0772c1fa72955c0e32f37bd6a431601f4d28036e5c7853b91
1be1ff1783af1c4f60b6df0304b5f38860b826fb4408d139066d3977a206e6d34508895d53b6f8ead55338e0bc3303f6da612c2160896b00feab8824be676f37
a31642d2c8547e4c9e41b5cf4efe2326001619d740483e66d4d0ca889c9a4fa8f8ee188aefe361ecd37810250f630730b4e92e9ecc419e4e1dc38e35ca221de0
e9a01d01798e378154317316d20cb2fe98e12f57058a787b68d9c5a0d98ad2fe8531f5137f076ec685ef49728b0986ecc2ed691349dba041104e0fbd430b07dd

6356a88aebad540231a9315d1bb5ed1e60b826fb4408d139066d3977a206e6d34508895d53b6f8ead55338e0bc3303f6da612c2160896b00feab8824be676f37
e517237d902b3befd2462932f9e3a3521015ce82345eeaa6b6a061382d5a6904d7d059a17552401bbfb6d191a917a514f9ea9ba6aa5a5c64f058afc0d19f19c0
23204c3025f1ca59c21d0a616705f3935f2832c042dfa2c5ebd3d48493f5833e01f1840f5b4d6cba1d83322a9b6f629e0bfffa08f280fa3e7b4b251084999032
6ca8e701a3925ada9f8177219747d26dd185c23be95b4244af14012e1a9ddbfc26d60244e69a4aad006f2d993bc668b680aba9f2f1191f40883a69ca0d3ab765
54c33b1af7f1a8adbcb370ec1bed11c72a5038b4698f17ad50649249c62602dab097e95e7f711f7814c2c2c87bd94dcdf8b9cde1ab2f884beac022703eb834e9
04a052e8ae9eacd4a7033bca128b1f57f31902dc7a2d0c2b81dd90cf3d929514001619d740483e66d4d0ca889c9a4fa8a7b3cbcc64e55c18ca03443e7108d392
553d55d94b45bb65a3828361c361b84a911644eeb848080ec7873c457d87c1d9da7516b15c4294d25bb6305f11824ef5e79f598db7e5c9079e034b841bcd50c5

a80eb6ec82b272528a2d5cabc246481a70b25551c41b7f241eefc80a6291b8db30022b95bd090163c72243d21cff56f1a43dae20bf1a45b00ee0b177744bf42f
3ad090b6d5680f84c56011bdf086b001d185c23be95b4244af14012e1a9ddbfc26d60244e69a4aad006f2d993bc668b680aba9f2f1191f40883a69ca0d3ab765
671be3d380d52253fc74d1a5ec14db18da7516b15c4294d25bb6305f11824ef5e51f19db105f21a0772c1fa72955c0e32f37bd6a431601f4d28036e5c7853b91
c6073a58c14d0034f6c8bdf146120267c81d0721db1b02fdf5a60c72692817a6ec315c41ad990385cdba363a69c5b87a9eef2fbcd7f8e94604f4bf3d1ed82ab0
81cba74155cdb08b204d49d4da28d7b7d185c23be95b4244af14012e1a9ddbfc26d60244e69a4aad006f2d993bc668b680aba9f2f1191f40883a69ca0d3ab765
135d74f335718c5c54a312fc9dc7070a1015ce82345eeaa6b6a061382d5a6904d7d059a17552401bbfb6d191a917a514f9ea9ba6aa5a5c64f058afc0d19f19c0
7de0cb2b332e57503de87705dafd695d001619d740483e66d4d0ca889c9a4fa8f8ee188aefe361ecd37810250f630730b4e92e9ecc419e4e1dc38e35ca221de0
63ca97ae41d3ea8fe51cc0e6270d2c0b6773248bbc31dc42ed2ab8b1a1b246a4ffcfa6ed3321c5dfa5a9368a2591002cdedcb16f735adcc32c51ac6faff31b14
70ffe451e229fe986939013872bcbe7cbbcd25a80cf882948c1ed30f824437882e304de8de8487c6eb9fe16a4932dff2d346ca0dfd09addd2a2ef02b4b60e60c
30dd9b405ae472a235675b73183269a03fc0bf274729c9a8f18612275c64dcbc01f5564ae33722dde9dd93001234dc1025f56507f19511e0d94a51ed601bf5a0
3cba3cc425c2411547c1ba410bf6e4ed3fc0bf274729c9a8f18612275c64dcbc01f5564ae33722dde9dd93001234dc1025f56507f19511e0d94a51ed601bf5a0
c30c6a2b39ee434fa9c42731bf3558461b4a30aeaa5a16d6f51a1d7f7d811f57e526cd546198281a76eebad5bd4cadc01ae53c3b2cb707bd431f476fd32ccb45
9d6ee12c8300affaef72aa7ecb0b56be6f0de77a76185aeec20ced150f1de09ef3e5fa66ddecf9fdef34f27ccbac8848d8c8a7a8824cd7d73549dc3e03008501
8f22abac394b682356a2cc769abdc39dbbcd25a80cf882948c1ed30f824437882e304de8de8487c6eb9fe16a4932dff2d346ca0dfd09addd2a2ef02b4b60e60c
1896d9dce4cb8a546104c39b54982bc376c1ab3aae1fc9ed28c8cf5c3dd8b898162a7acd53f3f2612dd50d97617e43a7a619b0e02dcbee4407c297ad4a2950ad
$CDNENCFINISH_ADV2
.ends
.SUBCKT OCPT_Series_10x_140108146000 A K C E 
$CDNENCSTART_ADV2
17f62b1fb318c25603aeb85644ae98a5d179ef807807791f6459efacb9d7ffc37a831b146dc0f06bb1ef275619162e6d8f7ad0dc708bf15ae1a1d5bd0ae623b2
cd5040d5e253d8bb0f91377b0609cc3bc81d0721db1b02fdf5a60c72692817a6ec315c41ad990385cdba363a69c5b87a9eef2fbcd7f8e94604f4bf3d1ed82ab0
583edb0abd85c605d92f43d3c8943603001619d740483e66d4d0ca889c9a4fa8f8ee188aefe361ecd37810250f630730b4e92e9ecc419e4e1dc38e35ca221de0
5ba563db231ff6f17da101a7e91ad86a60b826fb4408d139066d3977a206e6d34508895d53b6f8ead55338e0bc3303f6da612c2160896b00feab8824be676f37
869972ce767bd9c439c9ef7f8cdc3146da7516b15c4294d25bb6305f11824ef5e51f19db105f21a0772c1fa72955c0e32f37bd6a431601f4d28036e5c7853b91
1be1ff1783af1c4f60b6df0304b5f38860b826fb4408d139066d3977a206e6d34508895d53b6f8ead55338e0bc3303f6da612c2160896b00feab8824be676f37
a31642d2c8547e4c9e41b5cf4efe2326001619d740483e66d4d0ca889c9a4fa8f8ee188aefe361ecd37810250f630730b4e92e9ecc419e4e1dc38e35ca221de0
e9a01d01798e378154317316d20cb2fe98e12f57058a787b68d9c5a0d98ad2fe8531f5137f076ec685ef49728b0986ecc2ed691349dba041104e0fbd430b07dd

6356a88aebad540231a9315d1bb5ed1e60b826fb4408d139066d3977a206e6d34508895d53b6f8ead55338e0bc3303f6da612c2160896b00feab8824be676f37
e517237d902b3befd2462932f9e3a3521015ce82345eeaa6b6a061382d5a6904d7d059a17552401bbfb6d191a917a514f9ea9ba6aa5a5c64f058afc0d19f19c0
23204c3025f1ca59c21d0a616705f3935f2832c042dfa2c5ebd3d48493f5833e01f1840f5b4d6cba1d83322a9b6f629e0bfffa08f280fa3e7b4b251084999032
6ca8e701a3925ada9f8177219747d26dd185c23be95b4244af14012e1a9ddbfc26d60244e69a4aad006f2d993bc668b680aba9f2f1191f40883a69ca0d3ab765
54c33b1af7f1a8adbcb370ec1bed11c72a5038b4698f17ad50649249c62602dab097e95e7f711f7814c2c2c87bd94dcdf8b9cde1ab2f884beac022703eb834e9
04a052e8ae9eacd4a7033bca128b1f57f31902dc7a2d0c2b81dd90cf3d929514001619d740483e66d4d0ca889c9a4fa8a7b3cbcc64e55c18ca03443e7108d392
553d55d94b45bb65a3828361c361b84a911644eeb848080ec7873c457d87c1d9da7516b15c4294d25bb6305f11824ef5e79f598db7e5c9079e034b841bcd50c5

a80eb6ec82b272528a2d5cabc246481a70b25551c41b7f241eefc80a6291b8db30022b95bd090163c72243d21cff56f1a43dae20bf1a45b00ee0b177744bf42f
3ad090b6d5680f84c56011bdf086b001d185c23be95b4244af14012e1a9ddbfc26d60244e69a4aad006f2d993bc668b680aba9f2f1191f40883a69ca0d3ab765
671be3d380d52253fc74d1a5ec14db18da7516b15c4294d25bb6305f11824ef5e51f19db105f21a0772c1fa72955c0e32f37bd6a431601f4d28036e5c7853b91
c6073a58c14d0034f6c8bdf146120267c81d0721db1b02fdf5a60c72692817a6ec315c41ad990385cdba363a69c5b87a9eef2fbcd7f8e94604f4bf3d1ed82ab0
81cba74155cdb08b204d49d4da28d7b7d185c23be95b4244af14012e1a9ddbfc26d60244e69a4aad006f2d993bc668b680aba9f2f1191f40883a69ca0d3ab765
135d74f335718c5c54a312fc9dc7070a1015ce82345eeaa6b6a061382d5a6904d7d059a17552401bbfb6d191a917a514f9ea9ba6aa5a5c64f058afc0d19f19c0
7de0cb2b332e57503de87705dafd695d001619d740483e66d4d0ca889c9a4fa8f8ee188aefe361ecd37810250f630730b4e92e9ecc419e4e1dc38e35ca221de0
63ca97ae41d3ea8fe51cc0e6270d2c0b6773248bbc31dc42ed2ab8b1a1b246a4ffcfa6ed3321c5dfa5a9368a2591002cdedcb16f735adcc32c51ac6faff31b14
70ffe451e229fe986939013872bcbe7cbbcd25a80cf882948c1ed30f824437882e304de8de8487c6eb9fe16a4932dff2d346ca0dfd09addd2a2ef02b4b60e60c
30dd9b405ae472a235675b73183269a03fc0bf274729c9a8f18612275c64dcbc01f5564ae33722dde9dd93001234dc1025f56507f19511e0d94a51ed601bf5a0
3cba3cc425c2411547c1ba410bf6e4ed3fc0bf274729c9a8f18612275c64dcbc01f5564ae33722dde9dd93001234dc1025f56507f19511e0d94a51ed601bf5a0
c30c6a2b39ee434fa9c42731bf3558461b4a30aeaa5a16d6f51a1d7f7d811f57e526cd546198281a76eebad5bd4cadc01ae53c3b2cb707bd431f476fd32ccb45
9d6ee12c8300affaef72aa7ecb0b56be6f0de77a76185aeec20ced150f1de09ef3e5fa66ddecf9fdef34f27ccbac8848d8c8a7a8824cd7d73549dc3e03008501
8f22abac394b682356a2cc769abdc39dbbcd25a80cf882948c1ed30f824437882e304de8de8487c6eb9fe16a4932dff2d346ca0dfd09addd2a2ef02b4b60e60c
1896d9dce4cb8a546104c39b54982bc376c1ab3aae1fc9ed28c8cf5c3dd8b898162a7acd53f3f2612dd50d97617e43a7a619b0e02dcbee4407c297ad4a2950ad
$CDNENCFINISH_ADV2
.ends
.SUBCKT OCPT_Series_10x_140109146000 A K C E 
$CDNENCSTART_ADV2
17f62b1fb318c25603aeb85644ae98a5d179ef807807791f6459efacb9d7ffc37a831b146dc0f06bb1ef275619162e6d8f7ad0dc708bf15ae1a1d5bd0ae623b2
cd5040d5e253d8bb0f91377b0609cc3bc81d0721db1b02fdf5a60c72692817a6ec315c41ad990385cdba363a69c5b87a9eef2fbcd7f8e94604f4bf3d1ed82ab0
583edb0abd85c605d92f43d3c8943603001619d740483e66d4d0ca889c9a4fa8f8ee188aefe361ecd37810250f630730b4e92e9ecc419e4e1dc38e35ca221de0
5ba563db231ff6f17da101a7e91ad86a60b826fb4408d139066d3977a206e6d34508895d53b6f8ead55338e0bc3303f6da612c2160896b00feab8824be676f37
869972ce767bd9c439c9ef7f8cdc3146da7516b15c4294d25bb6305f11824ef5e51f19db105f21a0772c1fa72955c0e32f37bd6a431601f4d28036e5c7853b91
1be1ff1783af1c4f60b6df0304b5f38860b826fb4408d139066d3977a206e6d34508895d53b6f8ead55338e0bc3303f6da612c2160896b00feab8824be676f37
a31642d2c8547e4c9e41b5cf4efe2326001619d740483e66d4d0ca889c9a4fa8f8ee188aefe361ecd37810250f630730b4e92e9ecc419e4e1dc38e35ca221de0
e9a01d01798e378154317316d20cb2fe98e12f57058a787b68d9c5a0d98ad2fe8531f5137f076ec685ef49728b0986ecc2ed691349dba041104e0fbd430b07dd

6356a88aebad540231a9315d1bb5ed1e60b826fb4408d139066d3977a206e6d34508895d53b6f8ead55338e0bc3303f6da612c2160896b00feab8824be676f37
e517237d902b3befd2462932f9e3a3521015ce82345eeaa6b6a061382d5a6904d7d059a17552401bbfb6d191a917a514f9ea9ba6aa5a5c64f058afc0d19f19c0
23204c3025f1ca59c21d0a616705f3935f2832c042dfa2c5ebd3d48493f5833e01f1840f5b4d6cba1d83322a9b6f629e0bfffa08f280fa3e7b4b251084999032
6ca8e701a3925ada9f8177219747d26dd185c23be95b4244af14012e1a9ddbfc26d60244e69a4aad006f2d993bc668b680aba9f2f1191f40883a69ca0d3ab765
54c33b1af7f1a8adbcb370ec1bed11c72a5038b4698f17ad50649249c62602dab097e95e7f711f7814c2c2c87bd94dcdf8b9cde1ab2f884beac022703eb834e9
04a052e8ae9eacd4a7033bca128b1f57f31902dc7a2d0c2b81dd90cf3d929514001619d740483e66d4d0ca889c9a4fa8a7b3cbcc64e55c18ca03443e7108d392
553d55d94b45bb65a3828361c361b84a911644eeb848080ec7873c457d87c1d9da7516b15c4294d25bb6305f11824ef5e79f598db7e5c9079e034b841bcd50c5

a80eb6ec82b272528a2d5cabc246481a70b25551c41b7f241eefc80a6291b8db30022b95bd090163c72243d21cff56f1a43dae20bf1a45b00ee0b177744bf42f
3ad090b6d5680f84c56011bdf086b001d185c23be95b4244af14012e1a9ddbfc26d60244e69a4aad006f2d993bc668b680aba9f2f1191f40883a69ca0d3ab765
671be3d380d52253fc74d1a5ec14db18da7516b15c4294d25bb6305f11824ef5e51f19db105f21a0772c1fa72955c0e32f37bd6a431601f4d28036e5c7853b91
c6073a58c14d0034f6c8bdf146120267c81d0721db1b02fdf5a60c72692817a6ec315c41ad990385cdba363a69c5b87a9eef2fbcd7f8e94604f4bf3d1ed82ab0
81cba74155cdb08b204d49d4da28d7b7d185c23be95b4244af14012e1a9ddbfc26d60244e69a4aad006f2d993bc668b680aba9f2f1191f40883a69ca0d3ab765
135d74f335718c5c54a312fc9dc7070a1015ce82345eeaa6b6a061382d5a6904d7d059a17552401bbfb6d191a917a514f9ea9ba6aa5a5c64f058afc0d19f19c0
7de0cb2b332e57503de87705dafd695d001619d740483e66d4d0ca889c9a4fa8f8ee188aefe361ecd37810250f630730b4e92e9ecc419e4e1dc38e35ca221de0
63ca97ae41d3ea8fe51cc0e6270d2c0b6773248bbc31dc42ed2ab8b1a1b246a4ffcfa6ed3321c5dfa5a9368a2591002cdedcb16f735adcc32c51ac6faff31b14
70ffe451e229fe986939013872bcbe7cbbcd25a80cf882948c1ed30f824437882e304de8de8487c6eb9fe16a4932dff2d346ca0dfd09addd2a2ef02b4b60e60c
30dd9b405ae472a235675b73183269a03fc0bf274729c9a8f18612275c64dcbc01f5564ae33722dde9dd93001234dc1025f56507f19511e0d94a51ed601bf5a0
3cba3cc425c2411547c1ba410bf6e4ed3fc0bf274729c9a8f18612275c64dcbc01f5564ae33722dde9dd93001234dc1025f56507f19511e0d94a51ed601bf5a0
c30c6a2b39ee434fa9c42731bf3558461b4a30aeaa5a16d6f51a1d7f7d811f574333c5ded44ba296ce93f89ffe3467b21ae53c3b2cb707bd431f476fd32ccb45
9d6ee12c8300affaef72aa7ecb0b56be6f0de77a76185aeec20ced150f1de09ef3e5fa66ddecf9fdef34f27ccbac8848d8c8a7a8824cd7d73549dc3e03008501
8f22abac394b682356a2cc769abdc39dbbcd25a80cf882948c1ed30f824437882e304de8de8487c6eb9fe16a4932dff2d346ca0dfd09addd2a2ef02b4b60e60c
1896d9dce4cb8a546104c39b54982bc376c1ab3aae1fc9ed28c8cf5c3dd8b898162a7acd53f3f2612dd50d97617e43a7a619b0e02dcbee4407c297ad4a2950ad
$CDNENCFINISH_ADV2
.ends
.SUBCKT OCPT_Series_10x_140100146000 A K C E 
$CDNENCSTART_ADV2
17f62b1fb318c25603aeb85644ae98a5d179ef807807791f6459efacb9d7ffc37a831b146dc0f06bb1ef275619162e6d8f7ad0dc708bf15ae1a1d5bd0ae623b2
cd5040d5e253d8bb0f91377b0609cc3bc81d0721db1b02fdf5a60c72692817a6ec315c41ad990385cdba363a69c5b87a9eef2fbcd7f8e94604f4bf3d1ed82ab0
583edb0abd85c605d92f43d3c8943603001619d740483e66d4d0ca889c9a4fa8f8ee188aefe361ecd37810250f630730b4e92e9ecc419e4e1dc38e35ca221de0
5ba563db231ff6f17da101a7e91ad86a60b826fb4408d139066d3977a206e6d34508895d53b6f8ead55338e0bc3303f6da612c2160896b00feab8824be676f37
869972ce767bd9c439c9ef7f8cdc3146da7516b15c4294d25bb6305f11824ef5e51f19db105f21a0772c1fa72955c0e32f37bd6a431601f4d28036e5c7853b91
1be1ff1783af1c4f60b6df0304b5f38860b826fb4408d139066d3977a206e6d34508895d53b6f8ead55338e0bc3303f6da612c2160896b00feab8824be676f37
a31642d2c8547e4c9e41b5cf4efe2326001619d740483e66d4d0ca889c9a4fa8f8ee188aefe361ecd37810250f630730b4e92e9ecc419e4e1dc38e35ca221de0
e9a01d01798e378154317316d20cb2fe98e12f57058a787b68d9c5a0d98ad2fe8531f5137f076ec685ef49728b0986ecc2ed691349dba041104e0fbd430b07dd

6356a88aebad540231a9315d1bb5ed1e60b826fb4408d139066d3977a206e6d34508895d53b6f8ead55338e0bc3303f6da612c2160896b00feab8824be676f37
e517237d902b3befd2462932f9e3a3521015ce82345eeaa6b6a061382d5a6904d7d059a17552401bbfb6d191a917a514f9ea9ba6aa5a5c64f058afc0d19f19c0
23204c3025f1ca59c21d0a616705f3935f2832c042dfa2c5ebd3d48493f5833e01f1840f5b4d6cba1d83322a9b6f629e0bfffa08f280fa3e7b4b251084999032
6ca8e701a3925ada9f8177219747d26dd185c23be95b4244af14012e1a9ddbfc26d60244e69a4aad006f2d993bc668b680aba9f2f1191f40883a69ca0d3ab765
54c33b1af7f1a8adbcb370ec1bed11c72a5038b4698f17ad50649249c62602dab097e95e7f711f7814c2c2c87bd94dcdf8b9cde1ab2f884beac022703eb834e9
04a052e8ae9eacd4a7033bca128b1f57f31902dc7a2d0c2b81dd90cf3d929514001619d740483e66d4d0ca889c9a4fa8a7b3cbcc64e55c18ca03443e7108d392
553d55d94b45bb65a3828361c361b84a911644eeb848080ec7873c457d87c1d9da7516b15c4294d25bb6305f11824ef5e79f598db7e5c9079e034b841bcd50c5

a80eb6ec82b272528a2d5cabc246481a70b25551c41b7f241eefc80a6291b8db30022b95bd090163c72243d21cff56f1a43dae20bf1a45b00ee0b177744bf42f
3ad090b6d5680f84c56011bdf086b001d185c23be95b4244af14012e1a9ddbfc26d60244e69a4aad006f2d993bc668b680aba9f2f1191f40883a69ca0d3ab765
671be3d380d52253fc74d1a5ec14db18da7516b15c4294d25bb6305f11824ef5e51f19db105f21a0772c1fa72955c0e32f37bd6a431601f4d28036e5c7853b91
c6073a58c14d0034f6c8bdf146120267c81d0721db1b02fdf5a60c72692817a6ec315c41ad990385cdba363a69c5b87a9eef2fbcd7f8e94604f4bf3d1ed82ab0
81cba74155cdb08b204d49d4da28d7b7d185c23be95b4244af14012e1a9ddbfc26d60244e69a4aad006f2d993bc668b680aba9f2f1191f40883a69ca0d3ab765
135d74f335718c5c54a312fc9dc7070a1015ce82345eeaa6b6a061382d5a6904d7d059a17552401bbfb6d191a917a514f9ea9ba6aa5a5c64f058afc0d19f19c0
7de0cb2b332e57503de87705dafd695d001619d740483e66d4d0ca889c9a4fa8f8ee188aefe361ecd37810250f630730b4e92e9ecc419e4e1dc38e35ca221de0
63ca97ae41d3ea8fe51cc0e6270d2c0b6773248bbc31dc42ed2ab8b1a1b246a4ffcfa6ed3321c5dfa5a9368a2591002cdedcb16f735adcc32c51ac6faff31b14
70ffe451e229fe986939013872bcbe7cbbcd25a80cf882948c1ed30f824437882e304de8de8487c6eb9fe16a4932dff2d346ca0dfd09addd2a2ef02b4b60e60c
30dd9b405ae472a235675b73183269a03fc0bf274729c9a8f18612275c64dcbc01f5564ae33722dde9dd93001234dc1025f56507f19511e0d94a51ed601bf5a0
3cba3cc425c2411547c1ba410bf6e4ed3fc0bf274729c9a8f18612275c64dcbc01f5564ae33722dde9dd93001234dc1025f56507f19511e0d94a51ed601bf5a0
c30c6a2b39ee434fa9c42731bf3558461b4a30aeaa5a16d6f51a1d7f7d811f57d4c6d9a3db51064150e027f94c9b4d101ae53c3b2cb707bd431f476fd32ccb45
9d6ee12c8300affaef72aa7ecb0b56be6f0de77a76185aeec20ced150f1de09ef3e5fa66ddecf9fdef34f27ccbac8848d8c8a7a8824cd7d73549dc3e03008501
8f22abac394b682356a2cc769abdc39dbbcd25a80cf882948c1ed30f824437882e304de8de8487c6eb9fe16a4932dff2d346ca0dfd09addd2a2ef02b4b60e60c
1896d9dce4cb8a546104c39b54982bc376c1ab3aae1fc9ed28c8cf5c3dd8b898162a7acd53f3f2612dd50d97617e43a7a619b0e02dcbee4407c297ad4a2950ad
$CDNENCFINISH_ADV2
.ends
.SUBCKT OCPT_Series_354_140354245100 A K C E 
$CDNENCSTART_ADV2
17f62b1fb318c25603aeb85644ae98a5d179ef807807791f6459efacb9d7ffc37a831b146dc0f06bb1ef275619162e6d8f7ad0dc708bf15ae1a1d5bd0ae623b2
1f591204e91a08918ee908faad6fabeada7516b15c4294d25bb6305f11824ef5e51f19db105f21a0772c1fa72955c0e32f37bd6a431601f4d28036e5c7853b91
1ee8ccb8e63b4faa6fb5fd4801764970da7516b15c4294d25bb6305f11824ef5e51f19db105f21a0772c1fa72955c0e32f37bd6a431601f4d28036e5c7853b91
583edb0abd85c605d92f43d3c8943603001619d740483e66d4d0ca889c9a4fa8f8ee188aefe361ecd37810250f630730b4e92e9ecc419e4e1dc38e35ca221de0
dc272a80bb8a40c5791276ee06781a5ac81d0721db1b02fdf5a60c72692817a6ec315c41ad990385cdba363a69c5b87a9eef2fbcd7f8e94604f4bf3d1ed82ab0
869972ce767bd9c439c9ef7f8cdc3146da7516b15c4294d25bb6305f11824ef5e51f19db105f21a0772c1fa72955c0e32f37bd6a431601f4d28036e5c7853b91
1be1ff1783af1c4f60b6df0304b5f38860b826fb4408d139066d3977a206e6d34508895d53b6f8ead55338e0bc3303f6da612c2160896b00feab8824be676f37
a31642d2c8547e4c9e41b5cf4efe2326001619d740483e66d4d0ca889c9a4fa8f8ee188aefe361ecd37810250f630730b4e92e9ecc419e4e1dc38e35ca221de0
e9a01d01798e378154317316d20cb2fe12438d86b2ebecb93eeda9daf89d6acc1fb9b0c9270222121f4e77d2bcb943bb4ad6e5dc35070c4f935d423ecafb771e

6356a88aebad540231a9315d1bb5ed1e60b826fb4408d139066d3977a206e6d34508895d53b6f8ead55338e0bc3303f6da612c2160896b00feab8824be676f37
07c1f8a9feedd21d9296c5cd00f644b21015ce82345eeaa6b6a061382d5a6904d7d059a17552401bbfb6d191a917a514f9ea9ba6aa5a5c64f058afc0d19f19c0
34d0e1382b980affecd44ee2b6edc30dae88c9e6cf056ae2abcf12de6d6e41dd0ed958284e559355695e793193ac0c6ac058b215691c79629eee8105103dfddd
8c9eed21e75300841a870eb952a5e6743a539c6c5c52a2c15cd351148957756f70b25551c41b7f241eefc80a6291b8db2253431facf8dc5dd97273de5d8a028e
85d59ef19e3ed9773adf1d52c9cb053f93c3b384def2f8b75e1d65cfb6d3c43c6858547940bba9c3c4371f50e9abc49a5102b3079d19ea1428e04e81aacc47e9
d630780e276902220541e56c8fb68809785d74ab4a6b4e06a823d6638f4ca1e9bbcd25a80cf882948c1ed30f824437883ddbf0ed002813b50b813df675a705b9
553d55d94b45bb65a3828361c361b84a911644eeb848080ec7873c457d87c1d9da7516b15c4294d25bb6305f11824ef5e79f598db7e5c9079e034b841bcd50c5

a80eb6ec82b272528a2d5cabc246481a70b25551c41b7f241eefc80a6291b8db30022b95bd090163c72243d21cff56f1a43dae20bf1a45b00ee0b177744bf42f
6edd9519cc7b54d20816a3716920614fd185c23be95b4244af14012e1a9ddbfc26d60244e69a4aad006f2d993bc668b680aba9f2f1191f40883a69ca0d3ab765
b55c35fb63ad8943c6257785bb313e0eda7516b15c4294d25bb6305f11824ef5e51f19db105f21a0772c1fa72955c0e32f37bd6a431601f4d28036e5c7853b91
e50a08cb5c91c40b0ed989b628359f75c81d0721db1b02fdf5a60c72692817a6ec315c41ad990385cdba363a69c5b87a9eef2fbcd7f8e94604f4bf3d1ed82ab0
b44b86802df1aa8c53da7690fdb4ab38d185c23be95b4244af14012e1a9ddbfc26d60244e69a4aad006f2d993bc668b680aba9f2f1191f40883a69ca0d3ab765
135d74f335718c5c54a312fc9dc7070a1015ce82345eeaa6b6a061382d5a6904d7d059a17552401bbfb6d191a917a514f9ea9ba6aa5a5c64f058afc0d19f19c0
7de0cb2b332e57503de87705dafd695d001619d740483e66d4d0ca889c9a4fa8f8ee188aefe361ecd37810250f630730b4e92e9ecc419e4e1dc38e35ca221de0
63ca97ae41d3ea8fe51cc0e6270d2c0b6773248bbc31dc42ed2ab8b1a1b246a4ffcfa6ed3321c5dfa5a9368a2591002cdedcb16f735adcc32c51ac6faff31b14
70ffe451e229fe986939013872bcbe7cbbcd25a80cf882948c1ed30f824437882e304de8de8487c6eb9fe16a4932dff2d346ca0dfd09addd2a2ef02b4b60e60c
30dd9b405ae472a235675b73183269a03fc0bf274729c9a8f18612275c64dcbc01f5564ae33722dde9dd93001234dc1025f56507f19511e0d94a51ed601bf5a0
3cba3cc425c2411547c1ba410bf6e4ed3fc0bf274729c9a8f18612275c64dcbc01f5564ae33722dde9dd93001234dc1025f56507f19511e0d94a51ed601bf5a0
c30c6a2b39ee434fa9c42731bf3558461b4a30aeaa5a16d6f51a1d7f7d811f57ccb2d62f33ba36c38ff93476224ea6c43f24ab8ecdf3cc3cd633c260a59ec836
9d6ee12c8300affaef72aa7ecb0b56be6f0de77a76185aeec20ced150f1de09ef3e5fa66ddecf9fdef34f27ccbac8848d8c8a7a8824cd7d73549dc3e03008501
8f22abac394b682356a2cc769abdc39dbbcd25a80cf882948c1ed30f824437882e304de8de8487c6eb9fe16a4932dff2d346ca0dfd09addd2a2ef02b4b60e60c
1896d9dce4cb8a546104c39b54982bc3cdc1e5a8cc4f220d47d1df69826edc3032a512cf4e29fc35b552de98794667a9c6cc1c4e6870dfcbd8cc826369594de6
$CDNENCFINISH_ADV2
.ends
.SUBCKT OCPT_Series_354_140354245000 A K C E 
$CDNENCSTART_ADV2
17f62b1fb318c25603aeb85644ae98a5d179ef807807791f6459efacb9d7ffc37a831b146dc0f06bb1ef275619162e6d8f7ad0dc708bf15ae1a1d5bd0ae623b2
1f591204e91a08918ee908faad6fabeada7516b15c4294d25bb6305f11824ef5e51f19db105f21a0772c1fa72955c0e32f37bd6a431601f4d28036e5c7853b91
1ee8ccb8e63b4faa6fb5fd4801764970da7516b15c4294d25bb6305f11824ef5e51f19db105f21a0772c1fa72955c0e32f37bd6a431601f4d28036e5c7853b91
583edb0abd85c605d92f43d3c8943603001619d740483e66d4d0ca889c9a4fa8f8ee188aefe361ecd37810250f630730b4e92e9ecc419e4e1dc38e35ca221de0
dc272a80bb8a40c5791276ee06781a5ac81d0721db1b02fdf5a60c72692817a6ec315c41ad990385cdba363a69c5b87a9eef2fbcd7f8e94604f4bf3d1ed82ab0
869972ce767bd9c439c9ef7f8cdc3146da7516b15c4294d25bb6305f11824ef5e51f19db105f21a0772c1fa72955c0e32f37bd6a431601f4d28036e5c7853b91