**************************************************
* Manufacturer:           Würth Elektronik
* Kinds:                  Optocoupler Phototransistor
* Matchcode:              WL-OCPT
* Library Type:           Pspice
* Version:                rev24a
* Created/modified by:    Ella      
* Date and Time:          2024-10-21
* Team:                   eiSos EDA Service  
* Contact:                libraries@we-online.com
**************************************************
* Copyright(C) 2024 Würth Elektronik eiSos GmbH & Co. KG
* All Rights Reserved.
**************************************************
* Disclaimer: While Würth Elektronik eiSos has made every reasonable effort to ensure the accuracy
* of the simulation models provided, Würth Elektronik eiSos does not guarantee the exemption of error on
* the simulation models, nor does Würth Elektronik eiSos guarantee that the simulation model is current.
* Würth Elektronik eiSos reserves the right to make any adjustments at any time without notice.
* Würth Elektronik eiSos expressly disclaims all implied warranties regarding this simulation model.
**************************************************
**$ENCRYPTED_LIB
**$INTERFACE
.SUBCKT OCPT_Series_10x_140105146000 A K C E 
$CDNENCSTART_ADV2
17f62b1fb318c25603aeb85644ae98a5d179ef807807791f6459efacb9d7ffc37a831b146dc0f06bb1ef275619162e6d8f7ad0dc708bf15ae1a1d5bd0ae623b2
cd5040d5e253d8bb0f91377b0609cc3b0967ce3ddc8ea86f70a5a5d7b0e7713f96545dfaeae483237361ff407f5108ca5e15332de2c36dd072ff73ad2a64e6a5
cb55d34aa6454bb0cb54aafdcb4053de379935326de67e08750f961f212d6a9a6911f36afd94dbc8cda405b927c7017ccebc8746a4590aa626dcbb356530ba40
5ba563db231ff6f17da101a7e91ad86a38deb3e23fe973d6af6bf6ce6b0df0f357fe243f6f5e6b11ea4816451ea8c28208b1b3585b99c195ffe55145c21e9492
869972ce767bd9c439c9ef7f8cdc31469f4911d5cb3097adf9276a1abb791834da8eb550404aa0320ebd95c774970bc1b038aea7ce8ab6be024f4a39d22d38a2
1be1ff1783af1c4f60b6df0304b5f38838deb3e23fe973d6af6bf6ce6b0df0f357fe243f6f5e6b11ea4816451ea8c28208b1b3585b99c195ffe55145c21e9492
c1991828c9f04995857ee69f40404d10379935326de67e08750f961f212d6a9a6911f36afd94dbc8cda405b927c7017ccebc8746a4590aa626dcbb356530ba40
e9a01d01798e378154317316d20cb2fef268e0da0ea790026ad6a594b44d193871c18dd70aeb78f4445432b518569a24d367d1a1b121234e0b50e1972b781c76

6356a88aebad540231a9315d1bb5ed1e38deb3e23fe973d6af6bf6ce6b0df0f357fe243f6f5e6b11ea4816451ea8c28208b1b3585b99c195ffe55145c21e9492
e517237d902b3befd2462932f9e3a352e889497e9094bec153a9f36cd2de65190105df2558c192228c742581bda0d681390e59e94a8e463f867a44f1da41277f
23204c3025f1ca59c21d0a616705f3935f2832c042dfa2c5ebd3d48493f5833e01f1840f5b4d6cba1d83322a9b6f629e0bfffa08f280fa3e7b4b251084999032
6ca8e701a3925ada9f8177219747d26dac6e4069117f820b454ffbfd418abe8c0219d41b75b122192c4e6764f0b544a1f615277b64b34a970a2d3e6ad61d886d
54c33b1af7f1a8adbcb370ec1bed11c72a5038b4698f17ad50649249c62602dab097e95e7f711f7814c2c2c87bd94dcdf8b9cde1ab2f884beac022703eb834e9
04a052e8ae9eacd4a7033bca128b1f576c2eda025f445f91530f2fd9d9328349379935326de67e08750f961f212d6a9a257344f6080e4cae1b25c1bd576e68c7
553d55d94b45bb65a3828361c361b84a911644eeb848080ec7873c457d87c1d99f4911d5cb3097adf9276a1abb791834e02ccc93f0b9af5011d59516235df8dc

a80eb6ec82b272528a2d5cabc246481ac6448be94018b80788c632f39d02c45938a6012d377cbbcf00ff4e28e91bedfa9a9642d19822253c61568ba048411516
3ad090b6d5680f84c56011bdf086b001ac6e4069117f820b454ffbfd418abe8c0219d41b75b122192c4e6764f0b544a1f615277b64b34a970a2d3e6ad61d886d
671be3d380d52253fc74d1a5ec14db189f4911d5cb3097adf9276a1abb791834da8eb550404aa0320ebd95c774970bc1b038aea7ce8ab6be024f4a39d22d38a2
c6073a58c14d0034f6c8bdf1461202670967ce3ddc8ea86f70a5a5d7b0e7713f96545dfaeae483237361ff407f5108ca5e15332de2c36dd072ff73ad2a64e6a5
81cba74155cdb08b204d49d4da28d7b7ac6e4069117f820b454ffbfd418abe8c0219d41b75b122192c4e6764f0b544a1f615277b64b34a970a2d3e6ad61d886d
135d74f335718c5c54a312fc9dc7070ae889497e9094bec153a9f36cd2de65190105df2558c192228c742581bda0d681390e59e94a8e463f867a44f1da41277f
45853567faca9d859a9a02cd65f787a9379935326de67e08750f961f212d6a9a6911f36afd94dbc8cda405b927c7017ccebc8746a4590aa626dcbb356530ba40
fd3964c06b3de939891286714c5ee7b36367e7d7e8d5d1ef3b126ef33a7d61e41ad087a5b55cda2d620c2a99ab104d4ffcbcc10eb03c176d69d5379c5c4bc684
b5126fd113465a64940eba4da520ab63aa11b30562dc783aa2e7b3b900b4a0e8c41d836838a5eb5d227f4987e0d1e217ae47ffdcc49bab3e25fd81dff660ee17
30dd9b405ae472a235675b73183269a0c0184a201861b3c9185123f25308623085ca0dfcfda2fc7db4f997a0e794b4b3a7d06034c654a376064eb0a7e3191a60
3cba3cc425c2411547c1ba410bf6e4edc0184a201861b3c9185123f25308623085ca0dfcfda2fc7db4f997a0e794b4b3a7d06034c654a376064eb0a7e3191a60
c30c6a2b39ee434fa9c42731bf3558461b4a30aeaa5a16d6f51a1d7f7d811f57b0666e13c4183360cba6a3d47dd1e3921ae53c3b2cb707bd431f476fd32ccb45
9d6ee12c8300affaef72aa7ecb0b56be6f0de77a76185aeec20ced150f1de09ef3e5fa66ddecf9fdef34f27ccbac8848d8c8a7a8824cd7d73549dc3e03008501
d56a1550784befe1837c6fc3709a11b4aa11b30562dc783aa2e7b3b900b4a0e8c41d836838a5eb5d227f4987e0d1e217ae47ffdcc49bab3e25fd81dff660ee17
1896d9dce4cb8a546104c39b54982bc376c1ab3aae1fc9ed28c8cf5c3dd8b898162a7acd53f3f2612dd50d97617e43a7a619b0e02dcbee4407c297ad4a2950ad
$CDNENCFINISH_ADV2
.ends
.SUBCKT OCPT_Series_10x_140106146000 A K C E 
$CDNENCSTART_ADV2
17f62b1fb318c25603aeb85644ae98a5d179ef807807791f6459efacb9d7ffc37a831b146dc0f06bb1ef275619162e6d8f7ad0dc708bf15ae1a1d5bd0ae623b2
cd5040d5e253d8bb0f91377b0609cc3b0967ce3ddc8ea86f70a5a5d7b0e7713f96545dfaeae483237361ff407f5108ca5e15332de2c36dd072ff73ad2a64e6a5
cb55d34aa6454bb0cb54aafdcb4053de379935326de67e08750f961f212d6a9a6911f36afd94dbc8cda405b927c7017ccebc8746a4590aa626dcbb356530ba40
5ba563db231ff6f17da101a7e91ad86a38deb3e23fe973d6af6bf6ce6b0df0f357fe243f6f5e6b11ea4816451ea8c28208b1b3585b99c195ffe55145c21e9492
869972ce767bd9c439c9ef7f8cdc31469f4911d5cb3097adf9276a1abb791834da8eb550404aa0320ebd95c774970bc1b038aea7ce8ab6be024f4a39d22d38a2
1be1ff1783af1c4f60b6df0304b5f38838deb3e23fe973d6af6bf6ce6b0df0f357fe243f6f5e6b11ea4816451ea8c28208b1b3585b99c195ffe55145c21e9492
c1991828c9f04995857ee69f40404d10379935326de67e08750f961f212d6a9a6911f36afd94dbc8cda405b927c7017ccebc8746a4590aa626dcbb356530ba40
e9a01d01798e378154317316d20cb2fef268e0da0ea790026ad6a594b44d193871c18dd70aeb78f4445432b518569a24d367d1a1b121234e0b50e1972b781c76

6356a88aebad540231a9315d1bb5ed1e38deb3e23fe973d6af6bf6ce6b0df0f357fe243f6f5e6b11ea4816451ea8c28208b1b3585b99c195ffe55145c21e9492
e517237d902b3befd2462932f9e3a352e889497e9094bec153a9f36cd2de65190105df2558c192228c742581bda0d681390e59e94a8e463f867a44f1da41277f
23204c3025f1ca59c21d0a616705f3935f2832c042dfa2c5ebd3d48493f5833e01f1840f5b4d6cba1d83322a9b6f629e0bfffa08f280fa3e7b4b251084999032
6ca8e701a3925ada9f8177219747d26dac6e4069117f820b454ffbfd418abe8c0219d41b75b122192c4e6764f0b544a1f615277b64b34a970a2d3e6ad61d886d
54c33b1af7f1a8adbcb370ec1bed11c72a5038b4698f17ad50649249c62602dab097e95e7f711f7814c2c2c87bd94dcdf8b9cde1ab2f884beac022703eb834e9
04a052e8ae9eacd4a7033bca128b1f576c2eda025f445f91530f2fd9d9328349379935326de67e08750f961f212d6a9a257344f6080e4cae1b25c1bd576e68c7
553d55d94b45bb65a3828361c361b84a911644eeb848080ec7873c457d87c1d99f4911d5cb3097adf9276a1abb791834e02ccc93f0b9af5011d59516235df8dc

a80eb6ec82b272528a2d5cabc246481ac6448be94018b80788c632f39d02c45938a6012d377cbbcf00ff4e28e91bedfa9a9642d19822253c61568ba048411516
3ad090b6d5680f84c56011bdf086b001ac6e4069117f820b454ffbfd418abe8c0219d41b75b122192c4e6764f0b544a1f615277b64b34a970a2d3e6ad61d886d
671be3d380d52253fc74d1a5ec14db189f4911d5cb3097adf9276a1abb791834da8eb550404aa0320ebd95c774970bc1b038aea7ce8ab6be024f4a39d22d38a2
c6073a58c14d0034f6c8bdf1461202670967ce3ddc8ea86f70a5a5d7b0e7713f96545dfaeae483237361ff407f5108ca5e15332de2c36dd072ff73ad2a64e6a5
81cba74155cdb08b204d49d4da28d7b7ac6e4069117f820b454ffbfd418abe8c0219d41b75b122192c4e6764f0b544a1f615277b64b34a970a2d3e6ad61d886d
135d74f335718c5c54a312fc9dc7070ae889497e9094bec153a9f36cd2de65190105df2558c192228c742581bda0d681390e59e94a8e463f867a44f1da41277f
45853567faca9d859a9a02cd65f787a9379935326de67e08750f961f212d6a9a6911f36afd94dbc8cda405b927c7017ccebc8746a4590aa626dcbb356530ba40
fd3964c06b3de939891286714c5ee7b36367e7d7e8d5d1ef3b126ef33a7d61e41ad087a5b55cda2d620c2a99ab104d4ffcbcc10eb03c176d69d5379c5c4bc684
b5126fd113465a64940eba4da520ab63aa11b30562dc783aa2e7b3b900b4a0e8c41d836838a5eb5d227f4987e0d1e217ae47ffdcc49bab3e25fd81dff660ee17
30dd9b405ae472a235675b73183269a0c0184a201861b3c9185123f25308623085ca0dfcfda2fc7db4f997a0e794b4b3a7d06034c654a376064eb0a7e3191a60
3cba3cc425c2411547c1ba410bf6e4edc0184a201861b3c9185123f25308623085ca0dfcfda2fc7db4f997a0e794b4b3a7d06034c654a376064eb0a7e3191a60
c30c6a2b39ee434fa9c42731bf3558461b4a30aeaa5a16d6f51a1d7f7d811f57e5211b9f2b93b5100067777f3a56295f1ae53c3b2cb707bd431f476fd32ccb45
9d6ee12c8300affaef72aa7ecb0b56be6f0de77a76185aeec20ced150f1de09ef3e5fa66ddecf9fdef34f27ccbac8848d8c8a7a8824cd7d73549dc3e03008501
d56a1550784befe1837c6fc3709a11b4aa11b30562dc783aa2e7b3b900b4a0e8c41d836838a5eb5d227f4987e0d1e217ae47ffdcc49bab3e25fd81dff660ee17
1896d9dce4cb8a546104c39b54982bc376c1ab3aae1fc9ed28c8cf5c3dd8b898162a7acd53f3f2612dd50d97617e43a7a619b0e02dcbee4407c297ad4a2950ad
$CDNENCFINISH_ADV2
.ends
.SUBCKT OCPT_Series_10x_140107146000 A K C E 
$CDNENCSTART_ADV2
17f62b1fb318c25603aeb85644ae98a5d179ef807807791f6459efacb9d7ffc37a831b146dc0f06bb1ef275619162e6d8f7ad0dc708bf15ae1a1d5bd0ae623b2
cd5040d5e253d8bb0f91377b0609cc3b0967ce3ddc8ea86f70a5a5d7b0e7713f96545dfaeae483237361ff407f5108ca5e15332de2c36dd072ff73ad2a64e6a5
cb55d34aa6454bb0cb54aafdcb4053de379935326de67e08750f961f212d6a9a6911f36afd94dbc8cda405b927c7017ccebc8746a4590aa626dcbb356530ba40
5ba563db231ff6f17da101a7e91ad86a38deb3e23fe973d6af6bf6ce6b0df0f357fe243f6f5e6b11ea4816451ea8c28208b1b3585b99c195ffe55145c21e9492
869972ce767bd9c439c9ef7f8cdc31469f4911d5cb3097adf9276a1abb791834da8eb550404aa0320ebd95c774970bc1b038aea7ce8ab6be024f4a39d22d38a2
1be1ff1783af1c4f60b6df0304b5f38838deb3e23fe973d6af6bf6ce6b0df0f357fe243f6f5e6b11ea4816451ea8c28208b1b3585b99c195ffe55145c21e9492
c1991828c9f04995857ee69f40404d10379935326de67e08750f961f212d6a9a6911f36afd94dbc8cda405b927c7017ccebc8746a4590aa626dcbb356530ba40
e9a01d01798e378154317316d20cb2fef268e0da0ea790026ad6a594b44d193871c18dd70aeb78f4445432b518569a24d367d1a1b121234e0b50e1972b781c76

6356a88aebad540231a9315d1bb5ed1e38deb3e23fe973d6af6bf6ce6b0df0f357fe243f6f5e6b11ea4816451ea8c28208b1b3585b99c195ffe55145c21e9492
e517237d902b3befd2462932f9e3a352e889497e9094bec153a9f36cd2de65190105df2558c192228c742581bda0d681390e59e94a8e463f867a44f1da41277f
23204c3025f1ca59c21d0a616705f3935f2832c042dfa2c5ebd3d48493f5833e01f1840f5b4d6cba1d83322a9b6f629e0bfffa08f280fa3e7b4b251084999032
6ca8e701a3925ada9f8177219747d26dac6e4069117f820b454ffbfd418abe8c0219d41b75b122192c4e6764f0b544a1f615277b64b34a970a2d3e6ad61d886d
54c33b1af7f1a8adbcb370ec1bed11c72a5038b4698f17ad50649249c62602dab097e95e7f711f7814c2c2c87bd94dcdf8b9cde1ab2f884beac022703eb834e9
04a052e8ae9eacd4a7033bca128b1f576c2eda025f445f91530f2fd9d9328349379935326de67e08750f961f212d6a9a257344f6080e4cae1b25c1bd576e68c7
553d55d94b45bb65a3828361c361b84a911644eeb848080ec7873c457d87c1d99f4911d5cb3097adf9276a1abb791834e02ccc93f0b9af5011d59516235df8dc

a80eb6ec82b272528a2d5cabc246481ac6448be94018b80788c632f39d02c45938a6012d377cbbcf00ff4e28e91bedfa9a9642d19822253c61568ba048411516
3ad090b6d5680f84c56011bdf086b001ac6e4069117f820b454ffbfd418abe8c0219d41b75b122192c4e6764f0b544a1f615277b64b34a970a2d3e6ad61d886d
671be3d380d52253fc74d1a5ec14db189f4911d5cb3097adf9276a1abb791834da8eb550404aa0320ebd95c774970bc1b038aea7ce8ab6be024f4a39d22d38a2
c6073a58c14d0034f6c8bdf1461202670967ce3ddc8ea86f70a5a5d7b0e7713f96545dfaeae483237361ff407f5108ca5e15332de2c36dd072ff73ad2a64e6a5
81cba74155cdb08b204d49d4da28d7b7ac6e4069117f820b454ffbfd418abe8c0219d41b75b122192c4e6764f0b544a1f615277b64b34a970a2d3e6ad61d886d
135d74f335718c5c54a312fc9dc7070ae889497e9094bec153a9f36cd2de65190105df2558c192228c742581bda0d681390e59e94a8e463f867a44f1da41277f
45853567faca9d859a9a02cd65f787a9379935326de67e08750f961f212d6a9a6911f36afd94dbc8cda405b927c7017ccebc8746a4590aa626dcbb356530ba40
fd3964c06b3de939891286714c5ee7b36367e7d7e8d5d1ef3b126ef33a7d61e41ad087a5b55cda2d620c2a99ab104d4ffcbcc10eb03c176d69d5379c5c4bc684
b5126fd113465a64940eba4da520ab63aa11b30562dc783aa2e7b3b900b4a0e8c41d836838a5eb5d227f4987e0d1e217ae47ffdcc49bab3e25fd81dff660ee17
30dd9b405ae472a235675b73183269a0c0184a201861b3c9185123f25308623085ca0dfcfda2fc7db4f997a0e794b4b3a7d06034c654a376064eb0a7e3191a60
3cba3cc425c2411547c1ba410bf6e4edc0184a201861b3c9185123f25308623085ca0dfcfda2fc7db4f997a0e794b4b3a7d06034c654a376064eb0a7e3191a60
c30c6a2b39ee434fa9c42731bf3558461b4a30aeaa5a16d6f51a1d7f7d811f57e526cd546198281a76eebad5bd4cadc01ae53c3b2cb707bd431f476fd32ccb45
9d6ee12c8300affaef72aa7ecb0b56be6f0de77a76185aeec20ced150f1de09ef3e5fa66ddecf9fdef34f27ccbac8848d8c8a7a8824cd7d73549dc3e03008501
d56a1550784befe1837c6fc3709a11b4aa11b30562dc783aa2e7b3b900b4a0e8c41d836838a5eb5d227f4987e0d1e217ae47ffdcc49bab3e25fd81dff660ee17
1896d9dce4cb8a546104c39b54982bc376c1ab3aae1fc9ed28c8cf5c3dd8b898162a7acd53f3f2612dd50d97617e43a7a619b0e02dcbee4407c297ad4a2950ad
$CDNENCFINISH_ADV2
.ends
.SUBCKT OCPT_Series_10x_140108146000 A K C E 
$CDNENCSTART_ADV2
17f62b1fb318c25603aeb85644ae98a5d179ef807807791f6459efacb9d7ffc37a831b146dc0f06bb1ef275619162e6d8f7ad0dc708bf15ae1a1d5bd0ae623b2
cd5040d5e253d8bb0f91377b0609cc3b0967ce3ddc8ea86f70a5a5d7b0e7713f96545dfaeae483237361ff407f5108ca5e15332de2c36dd072ff73ad2a64e6a5
cb55d34aa6454bb0cb54aafdcb4053de379935326de67e08750f961f212d6a9a6911f36afd94dbc8cda405b927c7017ccebc8746a4590aa626dcbb356530ba40
5ba563db231ff6f17da101a7e91ad86a38deb3e23fe973d6af6bf6ce6b0df0f357fe243f6f5e6b11ea4816451ea8c28208b1b3585b99c195ffe55145c21e9492
869972ce767bd9c439c9ef7f8cdc31469f4911d5cb3097adf9276a1abb791834da8eb550404aa0320ebd95c774970bc1b038aea7ce8ab6be024f4a39d22d38a2
1be1ff1783af1c4f60b6df0304b5f38838deb3e23fe973d6af6bf6ce6b0df0f357fe243f6f5e6b11ea4816451ea8c28208b1b3585b99c195ffe55145c21e9492
c1991828c9f04995857ee69f40404d10379935326de67e08750f961f212d6a9a6911f36afd94dbc8cda405b927c7017ccebc8746a4590aa626dcbb356530ba40
e9a01d01798e378154317316d20cb2fef268e0da0ea790026ad6a594b44d193871c18dd70aeb78f4445432b518569a24d367d1a1b121234e0b50e1972b781c76

6356a88aebad540231a9315d1bb5ed1e38deb3e23fe973d6af6bf6ce6b0df0f357fe243f6f5e6b11ea4816451ea8c28208b1b3585b99c195ffe55145c21e9492
e517237d902b3befd2462932f9e3a352e889497e9094bec153a9f36cd2de65190105df2558c192228c742581bda0d681390e59e94a8e463f867a44f1da41277f
23204c3025f1ca59c21d0a616705f3935f2832c042dfa2c5ebd3d48493f5833e01f1840f5b4d6cba1d83322a9b6f629e0bfffa08f280fa3e7b4b251084999032
6ca8e701a3925ada9f8177219747d26dac6e4069117f820b454ffbfd418abe8c0219d41b75b122192c4e6764f0b544a1f615277b64b34a970a2d3e6ad61d886d
54c33b1af7f1a8adbcb370ec1bed11c72a5038b4698f17ad50649249c62602dab097e95e7f711f7814c2c2c87bd94dcdf8b9cde1ab2f884beac022703eb834e9
04a052e8ae9eacd4a7033bca128b1f576c2eda025f445f91530f2fd9d9328349379935326de67e08750f961f212d6a9a257344f6080e4cae1b25c1bd576e68c7
553d55d94b45bb65a3828361c361b84a911644eeb848080ec7873c457d87c1d99f4911d5cb3097adf9276a1abb791834e02ccc93f0b9af5011d59516235df8dc

a80eb6ec82b272528a2d5cabc246481ac6448be94018b80788c632f39d02c45938a6012d377cbbcf00ff4e28e91bedfa9a9642d19822253c61568ba048411516
3ad090b6d5680f84c56011bdf086b001ac6e4069117f820b454ffbfd418abe8c0219d41b75b122192c4e6764f0b544a1f615277b64b34a970a2d3e6ad61d886d
671be3d380d52253fc74d1a5ec14db189f4911d5cb3097adf9276a1abb791834da8eb550404aa0320ebd95c774970bc1b038aea7ce8ab6be024f4a39d22d38a2
c6073a58c14d0034f6c8bdf1461202670967ce3ddc8ea86f70a5a5d7b0e7713f96545dfaeae483237361ff407f5108ca5e15332de2c36dd072ff73ad2a64e6a5
81cba74155cdb08b204d49d4da28d7b7ac6e4069117f820b454ffbfd418abe8c0219d41b75b122192c4e6764f0b544a1f615277b64b34a970a2d3e6ad61d886d
135d74f335718c5c54a312fc9dc7070ae889497e9094bec153a9f36cd2de65190105df2558c192228c742581bda0d681390e59e94a8e463f867a44f1da41277f
45853567faca9d859a9a02cd65f787a9379935326de67e08750f961f212d6a9a6911f36afd94dbc8cda405b927c7017ccebc8746a4590aa626dcbb356530ba40
fd3964c06b3de939891286714c5ee7b36367e7d7e8d5d1ef3b126ef33a7d61e41ad087a5b55cda2d620c2a99ab104d4ffcbcc10eb03c176d69d5379c5c4bc684
b5126fd113465a64940eba4da520ab63aa11b30562dc783aa2e7b3b900b4a0e8c41d836838a5eb5d227f4987e0d1e217ae47ffdcc49bab3e25fd81dff660ee17
30dd9b405ae472a235675b73183269a0c0184a201861b3c9185123f25308623085ca0dfcfda2fc7db4f997a0e794b4b3a7d06034c654a376064eb0a7e3191a60
3cba3cc425c2411547c1ba410bf6e4edc0184a201861b3c9185123f25308623085ca0dfcfda2fc7db4f997a0e794b4b3a7d06034c654a376064eb0a7e3191a60
c30c6a2b39ee434fa9c42731bf3558461b4a30aeaa5a16d6f51a1d7f7d811f57e526cd546198281a76eebad5bd4cadc01ae53c3b2cb707bd431f476fd32ccb45
9d6ee12c8300affaef72aa7ecb0b56be6f0de77a76185aeec20ced150f1de09ef3e5fa66ddecf9fdef34f27ccbac8848d8c8a7a8824cd7d73549dc3e03008501
d56a1550784befe1837c6fc3709a11b4aa11b30562dc783aa2e7b3b900b4a0e8c41d836838a5eb5d227f4987e0d1e217ae47ffdcc49bab3e25fd81dff660ee17
1896d9dce4cb8a546104c39b54982bc376c1ab3aae1fc9ed28c8cf5c3dd8b898162a7acd53f3f2612dd50d97617e43a7a619b0e02dcbee4407c297ad4a2950ad
$CDNENCFINISH_ADV2
.ends
.SUBCKT OCPT_Series_10x_140109146000 A K C E 
$CDNENCSTART_ADV2
17f62b1fb318c25603aeb85644ae98a5d179ef807807791f6459efacb9d7ffc37a831b146dc0f06bb1ef275619162e6d8f7ad0dc708bf15ae1a1d5bd0ae623b2
cd5040d5e253d8bb0f91377b0609cc3b0967ce3ddc8ea86f70a5a5d7b0e7713f96545dfaeae483237361ff407f5108ca5e15332de2c36dd072ff73ad2a64e6a5
cb55d34aa6454bb0cb54aafdcb4053de379935326de67e08750f961f212d6a9a6911f36afd94dbc8cda405b927c7017ccebc8746a4590aa626dcbb356530ba40
5ba563db231ff6f17da101a7e91ad86a38deb3e23fe973d6af6bf6ce6b0df0f357fe243f6f5e6b11ea4816451ea8c28208b1b3585b99c195ffe55145c21e9492
869972ce767bd9c439c9ef7f8cdc31469f4911d5cb3097adf9276a1abb791834da8eb550404aa0320ebd95c774970bc1b038aea7ce8ab6be024f4a39d22d38a2
1be1ff1783af1c4f60b6df0304b5f38838deb3e23fe973d6af6bf6ce6b0df0f357fe243f6f5e6b11ea4816451ea8c28208b1b3585b99c195ffe55145c21e9492
c1991828c9f04995857ee69f40404d10379935326de67e08750f961f212d6a9a6911f36afd94dbc8cda405b927c7017ccebc8746a4590aa626dcbb356530ba40
e9a01d01798e378154317316d20cb2fef268e0da0ea790026ad6a594b44d193871c18dd70aeb78f4445432b518569a24d367d1a1b121234e0b50e1972b781c76

6356a88aebad540231a9315d1bb5ed1e38deb3e23fe973d6af6bf6ce6b0df0f357fe243f6f5e6b11ea4816451ea8c28208b1b3585b99c195ffe55145c21e9492
e517237d902b3befd2462932f9e3a352e889497e9094bec153a9f36cd2de65190105df2558c192228c742581bda0d681390e59e94a8e463f867a44f1da41277f
23204c3025f1ca59c21d0a616705f3935f2832c042dfa2c5ebd3d48493f5833e01f1840f5b4d6cba1d83322a9b6f629e0bfffa08f280fa3e7b4b251084999032
6ca8e701a3925ada9f8177219747d26dac6e4069117f820b454ffbfd418abe8c0219d41b75b122192c4e6764f0b544a1f615277b64b34a970a2d3e6ad61d886d
54c33b1af7f1a8adbcb370ec1bed11c72a5038b4698f17ad50649249c62602dab097e95e7f711f7814c2c2c87bd94dcdf8b9cde1ab2f884beac022703eb834e9
04a052e8ae9eacd4a7033bca128b1f576c2eda025f445f91530f2fd9d9328349379935326de67e08750f961f212d6a9a257344f6080e4cae1b25c1bd576e68c7
553d55d94b45bb65a3828361c361b84a911644eeb848080ec7873c457d87c1d99f4911d5cb3097adf9276a1abb791834e02ccc93f0b9af5011d59516235df8dc

a80eb6ec82b272528a2d5cabc246481ac6448be94018b80788c632f39d02c45938a6012d377cbbcf00ff4e28e91bedfa9a9642d19822253c61568ba048411516
3ad090b6d5680f84c56011bdf086b001ac6e4069117f820b454ffbfd418abe8c0219d41b75b122192c4e6764f0b544a1f615277b64b34a970a2d3e6ad61d886d
671be3d380d52253fc74d1a5ec14db189f4911d5cb3097adf9276a1abb791834da8eb550404aa0320ebd95c774970bc1b038aea7ce8ab6be024f4a39d22d38a2
c6073a58c14d0034f6c8bdf1461202670967ce3ddc8ea86f70a5a5d7b0e7713f96545dfaeae483237361ff407f5108ca5e15332de2c36dd072ff73ad2a64e6a5
81cba74155cdb08b204d49d4da28d7b7ac6e4069117f820b454ffbfd418abe8c0219d41b75b122192c4e6764f0b544a1f615277b64b34a970a2d3e6ad61d886d
135d74f335718c5c54a312fc9dc7070ae889497e9094bec153a9f36cd2de65190105df2558c192228c742581bda0d681390e59e94a8e463f867a44f1da41277f
45853567faca9d859a9a02cd65f787a9379935326de67e08750f961f212d6a9a6911f36afd94dbc8cda405b927c7017ccebc8746a4590aa626dcbb356530ba40
fd3964c06b3de939891286714c5ee7b36367e7d7e8d5d1ef3b126ef33a7d61e41ad087a5b55cda2d620c2a99ab104d4ffcbcc10eb03c176d69d5379c5c4bc684
b5126fd113465a64940eba4da520ab63aa11b30562dc783aa2e7b3b900b4a0e8c41d836838a5eb5d227f4987e0d1e217ae47ffdcc49bab3e25fd81dff660ee17
30dd9b405ae472a235675b73183269a0c0184a201861b3c9185123f25308623085ca0dfcfda2fc7db4f997a0e794b4b3a7d06034c654a376064eb0a7e3191a60
3cba3cc425c2411547c1ba410bf6e4edc0184a201861b3c9185123f25308623085ca0dfcfda2fc7db4f997a0e794b4b3a7d06034c654a376064eb0a7e3191a60
c30c6a2b39ee434fa9c42731bf3558461b4a30aeaa5a16d6f51a1d7f7d811f574333c5ded44ba296ce93f89ffe3467b21ae53c3b2cb707bd431f476fd32ccb45
9d6ee12c8300affaef72aa7ecb0b56be6f0de77a76185aeec20ced150f1de09ef3e5fa66ddecf9fdef34f27ccbac8848d8c8a7a8824cd7d73549dc3e03008501
d56a1550784befe1837c6fc3709a11b4aa11b30562dc783aa2e7b3b900b4a0e8c41d836838a5eb5d227f4987e0d1e217ae47ffdcc49bab3e25fd81dff660ee17
1896d9dce4cb8a546104c39b54982bc376c1ab3aae1fc9ed28c8cf5c3dd8b898162a7acd53f3f2612dd50d97617e43a7a619b0e02dcbee4407c297ad4a2950ad
$CDNENCFINISH_ADV2
.ends
.SUBCKT OCPT_Series_10x_140100146000 A K C E 
$CDNENCSTART_ADV2
17f62b1fb318c25603aeb85644ae98a5d179ef807807791f6459efacb9d7ffc37a831b146dc0f06bb1ef275619162e6d8f7ad0dc708bf15ae1a1d5bd0ae623b2
cd5040d5e253d8bb0f91377b0609cc3b0967ce3ddc8ea86f70a5a5d7b0e7713f96545dfaeae483237361ff407f5108ca5e15332de2c36dd072ff73ad2a64e6a5
cb55d34aa6454bb0cb54aafdcb4053de379935326de67e08750f961f212d6a9a6911f36afd94dbc8cda405b927c7017ccebc8746a4590aa626dcbb356530ba40
5ba563db231ff6f17da101a7e91ad86a38deb3e23fe973d6af6bf6ce6b0df0f357fe243f6f5e6b11ea4816451ea8c28208b1b3585b99c195ffe55145c21e9492
869972ce767bd9c439c9ef7f8cdc31469f4911d5cb3097adf9276a1abb791834da8eb550404aa0320ebd95c774970bc1b038aea7ce8ab6be024f4a39d22d38a2
1be1ff1783af1c4f60b6df0304b5f38838deb3e23fe973d6af6bf6ce6b0df0f357fe243f6f5e6b11ea4816451ea8c28208b1b3585b99c195ffe55145c21e9492
c1991828c9f04995857ee69f40404d10379935326de67e08750f961f212d6a9a6911f36afd94dbc8cda405b927c7017ccebc8746a4590aa626dcbb356530ba40
e9a01d01798e378154317316d20cb2fef268e0da0ea790026ad6a594b44d193871c18dd70aeb78f4445432b518569a24d367d1a1b121234e0b50e1972b781c76

6356a88aebad540231a9315d1bb5ed1e38deb3e23fe973d6af6bf6ce6b0df0f357fe243f6f5e6b11ea4816451ea8c28208b1b3585b99c195ffe55145c21e9492
e517237d902b3befd2462932f9e3a352e889497e9094bec153a9f36cd2de65190105df2558c192228c742581bda0d681390e59e94a8e463f867a44f1da41277f
23204c3025f1ca59c21d0a616705f3935f2832c042dfa2c5ebd3d48493f5833e01f1840f5b4d6cba1d83322a9b6f629e0bfffa08f280fa3e7b4b251084999032
6ca8e701a3925ada9f8177219747d26dac6e4069117f820b454ffbfd418abe8c0219d41b75b122192c4e6764f0b544a1f615277b64b34a970a2d3e6ad61d886d
54c33b1af7f1a8adbcb370ec1bed11c72a5038b4698f17ad50649249c62602dab097e95e7f711f7814c2c2c87bd94dcdf8b9cde1ab2f884beac022703eb834e9
04a052e8ae9eacd4a7033bca128b1f576c2eda025f445f91530f2fd9d9328349379935326de67e08750f961f212d6a9a257344f6080e4cae1b25c1bd576e68c7
553d55d94b45bb65a3828361c361b84a911644eeb848080ec7873c457d87c1d99f4911d5cb3097adf9276a1abb791834e02ccc93f0b9af5011d59516235df8dc

a80eb6ec82b272528a2d5cabc246481ac6448be94018b80788c632f39d02c45938a6012d377cbbcf00ff4e28e91bedfa9a9642d19822253c61568ba048411516
3ad090b6d5680f84c56011bdf086b001ac6e4069117f820b454ffbfd418abe8c0219d41b75b122192c4e6764f0b544a1f615277b64b34a970a2d3e6ad61d886d
671be3d380d52253fc74d1a5ec14db189f4911d5cb3097adf9276a1abb791834da8eb550404aa0320ebd95c774970bc1b038aea7ce8ab6be024f4a39d22d38a2
c6073a58c14d0034f6c8bdf1461202670967ce3ddc8ea86f70a5a5d7b0e7713f96545dfaeae483237361ff407f5108ca5e15332de2c36dd072ff73ad2a64e6a5
81cba74155cdb08b204d49d4da28d7b7ac6e4069117f820b454ffbfd418abe8c0219d41b75b122192c4e6764f0b544a1f615277b64b34a970a2d3e6ad61d886d
135d74f335718c5c54a312fc9dc7070ae889497e9094bec153a9f36cd2de65190105df2558c192228c742581bda0d681390e59e94a8e463f867a44f1da41277f
45853567faca9d859a9a02cd65f787a9379935326de67e08750f961f212d6a9a6911f36afd94dbc8cda405b927c7017ccebc8746a4590aa626dcbb356530ba40
fd3964c06b3de939891286714c5ee7b36367e7d7e8d5d1ef3b126ef33a7d61e41ad087a5b55cda2d620c2a99ab104d4ffcbcc10eb03c176d69d5379c5c4bc684
b5126fd113465a64940eba4da520ab63aa11b30562dc783aa2e7b3b900b4a0e8c41d836838a5eb5d227f4987e0d1e217ae47ffdcc49bab3e25fd81dff660ee17
30dd9b405ae472a235675b73183269a0c0184a201861b3c9185123f25308623085ca0dfcfda2fc7db4f997a0e794b4b3a7d06034c654a376064eb0a7e3191a60
3cba3cc425c2411547c1ba410bf6e4edc0184a201861b3c9185123f25308623085ca0dfcfda2fc7db4f997a0e794b4b3a7d06034c654a376064eb0a7e3191a60
c30c6a2b39ee434fa9c42731bf3558461b4a30aeaa5a16d6f51a1d7f7d811f57d4c6d9a3db51064150e027f94c9b4d101ae53c3b2cb707bd431f476fd32ccb45
9d6ee12c8300affaef72aa7ecb0b56be6f0de77a76185aeec20ced150f1de09ef3e5fa66ddecf9fdef34f27ccbac8848d8c8a7a8824cd7d73549dc3e03008501
d56a1550784befe1837c6fc3709a11b4aa11b30562dc783aa2e7b3b900b4a0e8c41d836838a5eb5d227f4987e0d1e217ae47ffdcc49bab3e25fd81dff660ee17
1896d9dce4cb8a546104c39b54982bc376c1ab3aae1fc9ed28c8cf5c3dd8b898162a7acd53f3f2612dd50d97617e43a7a619b0e02dcbee4407c297ad4a2950ad
$CDNENCFINISH_ADV2
.ends
.SUBCKT OCPT_Series_354_140354245100 A K C E 
$CDNENCSTART_ADV2
17f62b1fb318c25603aeb85644ae98a5d179ef807807791f6459efacb9d7ffc37a831b146dc0f06bb1ef275619162e6d8f7ad0dc708bf15ae1a1d5bd0ae623b2
1f591204e91a08918ee908faad6fabea9f4911d5cb3097adf9276a1abb791834da8eb550404aa0320ebd95c774970bc1b038aea7ce8ab6be024f4a39d22d38a2
1ee8ccb8e63b4faa6fb5fd48017649709f4911d5cb3097adf9276a1abb791834da8eb550404aa0320ebd95c774970bc1b038aea7ce8ab6be024f4a39d22d38a2
cb55d34aa6454bb0cb54aafdcb4053de379935326de67e08750f961f212d6a9a6911f36afd94dbc8cda405b927c7017ccebc8746a4590aa626dcbb356530ba40
dc272a80bb8a40c5791276ee06781a5a0967ce3ddc8ea86f70a5a5d7b0e7713f96545dfaeae483237361ff407f5108ca5e15332de2c36dd072ff73ad2a64e6a5
869972ce767bd9c439c9ef7f8cdc31469f4911d5cb3097adf9276a1abb791834da8eb550404aa0320ebd95c774970bc1b038aea7ce8ab6be024f4a39d22d38a2
1be1ff1783af1c4f60b6df0304b5f38838deb3e23fe973d6af6bf6ce6b0df0f357fe243f6f5e6b11ea4816451ea8c28208b1b3585b99c195ffe55145c21e9492
c1991828c9f04995857ee69f40404d10379935326de67e08750f961f212d6a9a6911f36afd94dbc8cda405b927c7017ccebc8746a4590aa626dcbb356530ba40
e9a01d01798e378154317316d20cb2fe9a76ed2363250c5d7eab1780802a3e95d9f66d7c9a8b5bc014d53051d5c4479a8750e622dd31430771b8e0b92649c6ac

6356a88aebad540231a9315d1bb5ed1e38deb3e23fe973d6af6bf6ce6b0df0f357fe243f6f5e6b11ea4816451ea8c28208b1b3585b99c195ffe55145c21e9492
07c1f8a9feedd21d9296c5cd00f644b2e889497e9094bec153a9f36cd2de65190105df2558c192228c742581bda0d681390e59e94a8e463f867a44f1da41277f
34d0e1382b980affecd44ee2b6edc30dae88c9e6cf056ae2abcf12de6d6e41dd0ed958284e559355695e793193ac0c6ac058b215691c79629eee8105103dfddd
8c9eed21e75300841a870eb952a5e6743a539c6c5c52a2c15cd351148957756fc6448be94018b80788c632f39d02c4590391d0d10093bccc13ec51527cf9b33b
85d59ef19e3ed9773adf1d52c9cb053f93c3b384def2f8b75e1d65cfb6d3c43c6858547940bba9c3c4371f50e9abc49a5102b3079d19ea1428e04e81aacc47e9
d630780e276902220541e56c8fb68809d4ab9a0eff9d68f9a290c9912ac2f02aaa11b30562dc783aa2e7b3b900b4a0e8761644694eb891b85bc3d3f34f53c26d
553d55d94b45bb65a3828361c361b84a911644eeb848080ec7873c457d87c1d99f4911d5cb3097adf9276a1abb791834e02ccc93f0b9af5011d59516235df8dc

a80eb6ec82b272528a2d5cabc246481ac6448be94018b80788c632f39d02c45938a6012d377cbbcf00ff4e28e91bedfa9a9642d19822253c61568ba048411516
6edd9519cc7b54d20816a3716920614fac6e4069117f820b454ffbfd418abe8c0219d41b75b122192c4e6764f0b544a1f615277b64b34a970a2d3e6ad61d886d
b55c35fb63ad8943c6257785bb313e0e9f4911d5cb3097adf9276a1abb791834da8eb550404aa0320ebd95c774970bc1b038aea7ce8ab6be024f4a39d22d38a2
e50a08cb5c91c40b0ed989b628359f750967ce3ddc8ea86f70a5a5d7b0e7713f96545dfaeae483237361ff407f5108ca5e15332de2c36dd072ff73ad2a64e6a5
b44b86802df1aa8c53da7690fdb4ab38ac6e4069117f820b454ffbfd418abe8c0219d41b75b122192c4e6764f0b544a1f615277b64b34a970a2d3e6ad61d886d
135d74f335718c5c54a312fc9dc7070ae889497e9094bec153a9f36cd2de65190105df2558c192228c742581bda0d681390e59e94a8e463f867a44f1da41277f
45853567faca9d859a9a02cd65f787a9379935326de67e08750f961f212d6a9a6911f36afd94dbc8cda405b927c7017ccebc8746a4590aa626dcbb356530ba40
fd3964c06b3de939891286714c5ee7b36367e7d7e8d5d1ef3b126ef33a7d61e41ad087a5b55cda2d620c2a99ab104d4ffcbcc10eb03c176d69d5379c5c4bc684
b5126fd113465a64940eba4da520ab63aa11b30562dc783aa2e7b3b900b4a0e8c41d836838a5eb5d227f4987e0d1e217ae47ffdcc49bab3e25fd81dff660ee17
30dd9b405ae472a235675b73183269a0c0184a201861b3c9185123f25308623085ca0dfcfda2fc7db4f997a0e794b4b3a7d06034c654a376064eb0a7e3191a60
3cba3cc425c2411547c1ba410bf6e4edc0184a201861b3c9185123f25308623085ca0dfcfda2fc7db4f997a0e794b4b3a7d06034c654a376064eb0a7e3191a60
c30c6a2b39ee434fa9c42731bf3558461b4a30aeaa5a16d6f51a1d7f7d811f57ccb2d62f33ba36c38ff93476224ea6c43f24ab8ecdf3cc3cd633c260a59ec836
9d6ee12c8300affaef72aa7ecb0b56be6f0de77a76185aeec20ced150f1de09ef3e5fa66ddecf9fdef34f27ccbac8848d8c8a7a8824cd7d73549dc3e03008501
d56a1550784befe1837c6fc3709a11b4aa11b30562dc783aa2e7b3b900b4a0e8c41d836838a5eb5d227f4987e0d1e217ae47ffdcc49bab3e25fd81dff660ee17
1896d9dce4cb8a546104c39b54982bc3cdc1e5a8cc4f220d47d1df69826edc3032a512cf4e29fc35b552de98794667a9c6cc1c4e6870dfcbd8cc826369594de6
$CDNENCFINISH_ADV2
.ends
.SUBCKT OCPT_Series_354_140354245000 A K C E 
$CDNENCSTART_ADV2
17f62b1fb318c25603aeb85644ae98a5d179ef807807791f6459efacb9d7ffc37a831b146dc0f06bb1ef275619162e6d8f7ad0dc708bf15ae1a1d5bd0ae623b2
1f591204e91a08918ee908faad6fabea9f4911d5cb3097adf9276a1abb791834da8eb550404aa0320ebd95c774970bc1b038aea7ce8ab6be024f4a39d22d38a2
1ee8ccb8e63b4faa6fb5fd48017649709f4911d5cb3097adf9276a1abb791834da8eb550404aa0320ebd95c774970bc1b038aea7ce8ab6be024f4a39d22d38a2
cb55d34aa6454bb0cb54aafdcb4053de379935326de67e08750f961f212d6a9a6911f36afd94dbc8cda405b927c7017ccebc8746a4590aa626dcbb356530ba40
dc272a80bb8a40c5791276ee06781a5a0967ce3ddc8ea86f70a5a5d7b0e7713f96545dfaeae483237361ff407f5108ca5e15332de2c36dd072ff73ad2a64e6a5
869972ce767bd9c439c9ef7f8cdc31469f4911d5cb3097adf9276a1abb791834da8eb550404aa0320ebd95c774970bc1b038aea7ce8ab6be024f4a39d22d38a2