**************************************************
* Manufacturer:           Würth Elektronik
* Kinds:                  Optocoupler Darlington
* Matchcode:              WL-OCDA
* Library Type:           Pspice
* Version:                rev24a
* Created/modified by:    Ella      
* Date and Time:          2022-02-14
* Team:                   eiSos EDA Service  
* Contact:                libraries@we-online.com
**************************************************
* Copyright(C) 2024 Würth Elektronik eiSos GmbH & Co. KG
* All Rights Reserved.
**************************************************
* Disclaimer: While Würth Elektronik eiSos has made every reasonable effort to ensure the accuracy
* of the simulation models provided, Würth Elektronik eiSos does not guarantee the exemption of error on
* the simulation models, nor does Würth Elektronik eiSos guarantee that the simulation model is current.
* Würth Elektronik eiSos reserves the right to make any adjustments at any time without notice.
* Würth Elektronik eiSos expressly disclaims all implied warranties regarding this simulation model.
**************************************************
**$ENCRYPTED_LIB
**$INTERFACE
.SUBCKT OCDA_Series_352_14135214xxx A K C E 
$CDNENCSTART_ADV2
17f62b1fb318c25603aeb85644ae98a5d179ef807807791f6459efacb9d7ffc37a831b146dc0f06bb1ef275619162e6d8f7ad0dc708bf15ae1a1d5bd0ae623b2
cd5040d5e253d8bb0f91377b0609cc3b373d8e734743708a050d45f96a686ffb470a8ab8d1f1637a344086e59ea2c3a621139b1275ff0c8a4a60e28b98c02ae8
cc549552cbf9556d9d87c98f5bcdcce1c02983a7d3a5d4426a1e72bbf74ffd8d86407cf32a54c8037eb13801c606eea4864ccb5deac6bae0ab0c1757df738133
5ba563db231ff6f17da101a7e91ad86aac09c61dfa00f459a0dd3f917278880c9fb8f5c667587a615d376c70529ba47b752e99b234a74ebf69794ed4fbb7cf8b
869972ce767bd9c439c9ef7f8cdc3146a0546a4dafcaf0c6b022e2da71a5dcc002ed2b695f95a1ad7bd5b1b1ccff98ac489434277432f939fb0d6c8b0abd0553
1be1ff1783af1c4f60b6df0304b5f388ac09c61dfa00f459a0dd3f917278880c9fb8f5c667587a615d376c70529ba47b752e99b234a74ebf69794ed4fbb7cf8b
3789f9aaae431b498b29e5a5b81afc3fc02983a7d3a5d4426a1e72bbf74ffd8d86407cf32a54c8037eb13801c606eea4864ccb5deac6bae0ab0c1757df738133
e9a01d01798e378154317316d20cb2fe082c8bec798666c67acd74a0b8d5d584dcb0a265410bb64e8e5333b5495229747d8cb11199372e6c55430493e9973eea

6356a88aebad540231a9315d1bb5ed1eac09c61dfa00f459a0dd3f917278880c9fb8f5c667587a615d376c70529ba47b752e99b234a74ebf69794ed4fbb7cf8b
ecdf414ddd1c731b27ee178f8dad012699fe8a09a0643c353d1b2e82d848efe1dcb0a265410bb64e8e5333b5495229747d8cb11199372e6c55430493e9973eea
8cca77986934f315475291dea09990b9bf144b9f4904fe4127f78be9543ef0e444d2cf22e145e23fa2fceebe779f346ff06db0e7abb8aec460ec9194cbb744a0
1569afe9a380657e1358cf3f36aa15fd373d8e734743708a050d45f96a686ffb470a8ab8d1f1637a344086e59ea2c3a621139b1275ff0c8a4a60e28b98c02ae8
50befddd4b3d80d649b23f0af22eb406598839e0f9ebfc21069a201e48ff63d5c380e9a7d82a2dbc1c142cee9a42cde255d493c2a7b8cac7362a53b10c68e59d
553d55d94b45bb65a3828361c361b84a911644eeb848080ec7873c457d87c1d9a0546a4dafcaf0c6b022e2da71a5dcc064e7564d4e95235feb20b48c401bbf52

193742266b34ff28375a5efa2bded966ac09c61dfa00f459a0dd3f917278880c9fb8f5c667587a615d376c70529ba47b752e99b234a74ebf69794ed4fbb7cf8b
19df84dea8d8f2cfc77918bb0d9ab73d26f7d7a7d29451137eb3849f53f043ccf4430ca9748691f23dfd8eb50d4da9b6bfc67b84f76da404fcf7781d6c38c9af
1c6aa31544b15aa62fa2f4cd8f8a2c92a0546a4dafcaf0c6b022e2da71a5dcc002ed2b695f95a1ad7bd5b1b1ccff98ac489434277432f939fb0d6c8b0abd0553
e76c2ef63e5b1ce3b5b14d282d54f5ee373d8e734743708a050d45f96a686ffb470a8ab8d1f1637a344086e59ea2c3a621139b1275ff0c8a4a60e28b98c02ae8
31c783b99deed7957a734f885be6f522ac09c61dfa00f459a0dd3f917278880c9fb8f5c667587a615d376c70529ba47b752e99b234a74ebf69794ed4fbb7cf8b
135d74f335718c5c54a312fc9dc7070adf66facbd373ec7868364c105a2b0a58f8957f38790633d4ea9f3c46f16c032a21855124a02508e31bd1e01e137d72c7
2ab22bdd7151a4c4661647ea6f340782c02983a7d3a5d4426a1e72bbf74ffd8d86407cf32a54c8037eb13801c606eea4864ccb5deac6bae0ab0c1757df738133
eb4096678382ff5181736724d0baaefa768bb8a91355a46b72da1690ded7227b12bed3ef1ed52376038485f9aa993305877240c434324815353c966d1d7b4d56
b3b17f06659b784c86da021524eb09ec26ba1a09fe69cace50980926db26a3a67b686d92cc4a235b22ca6cfb05c020e7c6b2cb4d9221a0373b668c715706fec4
30dd9b405ae472a235675b73183269a01a73c247646b8635357d1095eff7fe9a687d2061bbb50591c766c75089753c26be5720b46337099e3c9c86f92de332ab
3cba3cc425c2411547c1ba410bf6e4ed1a73c247646b8635357d1095eff7fe9a687d2061bbb50591c766c75089753c26be5720b46337099e3c9c86f92de332ab

c30c6a2b39ee434fa9c42731bf3558461b4a30aeaa5a16d6f51a1d7f7d811f5775c910e8794eda0accd41adcbdcedb3c02f68d2908ad936748b3543bdea86b67
9d6ee12c8300affaef72aa7ecb0b56be6f0de77a76185aeec20ced150f1de09ef3e5fa66ddecf9fdef34f27ccbac8848d8c8a7a8824cd7d73549dc3e03008501
739c042c7b40f8e1c13b85f90605c97c26ba1a09fe69cace50980926db26a3a67b686d92cc4a235b22ca6cfb05c020e7c6b2cb4d9221a0373b668c715706fec4
1896d9dce4cb8a546104c39b54982bc3f54ac76d87de222613dfd1beff869310162a7acd53f3f2612dd50d97617e43a7a619b0e02dcbee4407c297ad4a2950ad
$CDNENCFINISH_ADV2
.ends
.SUBCKT OCDA_Series_355_14135514xxx A K C E
$CDNENCSTART_ADV2
17f62b1fb318c25603aeb85644ae98a5d179ef807807791f6459efacb9d7ffc37a831b146dc0f06bb1ef275619162e6d8f7ad0dc708bf15ae1a1d5bd0ae623b2
cd5040d5e253d8bb0f91377b0609cc3b373d8e734743708a050d45f96a686ffb470a8ab8d1f1637a344086e59ea2c3a621139b1275ff0c8a4a60e28b98c02ae8
cc549552cbf9556d9d87c98f5bcdcce1c02983a7d3a5d4426a1e72bbf74ffd8d86407cf32a54c8037eb13801c606eea4864ccb5deac6bae0ab0c1757df738133
5ba563db231ff6f17da101a7e91ad86aac09c61dfa00f459a0dd3f917278880c9fb8f5c667587a615d376c70529ba47b752e99b234a74ebf69794ed4fbb7cf8b
869972ce767bd9c439c9ef7f8cdc3146a0546a4dafcaf0c6b022e2da71a5dcc002ed2b695f95a1ad7bd5b1b1ccff98ac489434277432f939fb0d6c8b0abd0553
1be1ff1783af1c4f60b6df0304b5f388ac09c61dfa00f459a0dd3f917278880c9fb8f5c667587a615d376c70529ba47b752e99b234a74ebf69794ed4fbb7cf8b
3789f9aaae431b498b29e5a5b81afc3fc02983a7d3a5d4426a1e72bbf74ffd8d86407cf32a54c8037eb13801c606eea4864ccb5deac6bae0ab0c1757df738133
e9a01d01798e378154317316d20cb2fe082c8bec798666c67acd74a0b8d5d584dcb0a265410bb64e8e5333b5495229747d8cb11199372e6c55430493e9973eea

6356a88aebad540231a9315d1bb5ed1eac09c61dfa00f459a0dd3f917278880c9fb8f5c667587a615d376c70529ba47b752e99b234a74ebf69794ed4fbb7cf8b
ecdf414ddd1c731b27ee178f8dad012699fe8a09a0643c353d1b2e82d848efe1dcb0a265410bb64e8e5333b5495229747d8cb11199372e6c55430493e9973eea
cfdbc444266dd6984cc63230f4dcdc0361fc98ff50b5c573e1a88fe3b963dae04deaaedbc8721abdd5eed1a2fa0572e5f440d27cad02ff5c86a95746bcb88984
82100bca9fe9736d801f86688a3922d0c02983a7d3a5d4426a1e72bbf74ffd8d86407cf32a54c8037eb13801c606eea4864ccb5deac6bae0ab0c1757df738133
e4b93faaf2cd75e2ead6e2f62ae53fea3a25691243ad29c58ce35a7a6ddb2fbfc380e9a7d82a2dbc1c142cee9a42cde255d493c2a7b8cac7362a53b10c68e59d
553d55d94b45bb65a3828361c361b84a911644eeb848080ec7873c457d87c1d9a0546a4dafcaf0c6b022e2da71a5dcc064e7564d4e95235feb20b48c401bbf52

193742266b34ff28375a5efa2bded966ac09c61dfa00f459a0dd3f917278880c9fb8f5c667587a615d376c70529ba47b752e99b234a74ebf69794ed4fbb7cf8b
b49c0229bc60c9e43156a48e1fef6bc426f7d7a7d29451137eb3849f53f043ccf4430ca9748691f23dfd8eb50d4da9b6bfc67b84f76da404fcf7781d6c38c9af
4b18ccdab2610a2390d14dd4b10c1118a0546a4dafcaf0c6b022e2da71a5dcc002ed2b695f95a1ad7bd5b1b1ccff98ac489434277432f939fb0d6c8b0abd0553
6bab5e169870671ea444cf3b6a93d991373d8e734743708a050d45f96a686ffb470a8ab8d1f1637a344086e59ea2c3a621139b1275ff0c8a4a60e28b98c02ae8
135d74f335718c5c54a312fc9dc7070adf66facbd373ec7868364c105a2b0a58f8957f38790633d4ea9f3c46f16c032a21855124a02508e31bd1e01e137d72c7
2ab22bdd7151a4c4661647ea6f340782c02983a7d3a5d4426a1e72bbf74ffd8d86407cf32a54c8037eb13801c606eea4864ccb5deac6bae0ab0c1757df738133
eb4096678382ff5181736724d0baaefa768bb8a91355a46b72da1690ded7227b12bed3ef1ed52376038485f9aa993305877240c434324815353c966d1d7b4d56
b3b17f06659b784c86da021524eb09ec26ba1a09fe69cace50980926db26a3a67b686d92cc4a235b22ca6cfb05c020e7c6b2cb4d9221a0373b668c715706fec4
30dd9b405ae472a235675b73183269a01a73c247646b8635357d1095eff7fe9a687d2061bbb50591c766c75089753c26be5720b46337099e3c9c86f92de332ab
3cba3cc425c2411547c1ba410bf6e4ed1a73c247646b8635357d1095eff7fe9a687d2061bbb50591c766c75089753c26be5720b46337099e3c9c86f92de332ab

c30c6a2b39ee434fa9c42731bf3558461b4a30aeaa5a16d6f51a1d7f7d811f57434c6a208586cee994056e01602190577fa33e954b525a83b0b51ee7abbdbaa5
a463f6d5fa9ea477fd31017bcf4ebdda366a46139ac2d6bf72ab9a1fe736483501c0f27fcc9a964324c60a418e9ced9544cdced7605675d61bc132d012ec4c1d
9d6ee12c8300affaef72aa7ecb0b56be6f0de77a76185aeec20ced150f1de09ef3e5fa66ddecf9fdef34f27ccbac8848d8c8a7a8824cd7d73549dc3e03008501
739c042c7b40f8e1c13b85f90605c97c26ba1a09fe69cace50980926db26a3a67b686d92cc4a235b22ca6cfb05c020e7c6b2cb4d9221a0373b668c715706fec4
1896d9dce4cb8a546104c39b54982bc382b1f411d1f7bdc060ebe9d29cd7b004a0b1be7c7f00ae45d843a839e3fdc559977205350c353c28e414567b0b34d2ab
$CDNENCFINISH_ADV2
.ends
.SUBCKT OCDA_Series_815_14181514xxx A K C E 
$CDNENCSTART_ADV2
17f62b1fb318c25603aeb85644ae98a5d179ef807807791f6459efacb9d7ffc37a831b146dc0f06bb1ef275619162e6d8f7ad0dc708bf15ae1a1d5bd0ae623b2
cd5040d5e253d8bb0f91377b0609cc3b373d8e734743708a050d45f96a686ffb470a8ab8d1f1637a344086e59ea2c3a621139b1275ff0c8a4a60e28b98c02ae8
cc549552cbf9556d9d87c98f5bcdcce1c02983a7d3a5d4426a1e72bbf74ffd8d86407cf32a54c8037eb13801c606eea4864ccb5deac6bae0ab0c1757df738133
5ba563db231ff6f17da101a7e91ad86aac09c61dfa00f459a0dd3f917278880c9fb8f5c667587a615d376c70529ba47b752e99b234a74ebf69794ed4fbb7cf8b
869972ce767bd9c439c9ef7f8cdc3146a0546a4dafcaf0c6b022e2da71a5dcc002ed2b695f95a1ad7bd5b1b1ccff98ac489434277432f939fb0d6c8b0abd0553
1be1ff1783af1c4f60b6df0304b5f388ac09c61dfa00f459a0dd3f917278880c9fb8f5c667587a615d376c70529ba47b752e99b234a74ebf69794ed4fbb7cf8b
3789f9aaae431b498b29e5a5b81afc3fc02983a7d3a5d4426a1e72bbf74ffd8d86407cf32a54c8037eb13801c606eea4864ccb5deac6bae0ab0c1757df738133
e9a01d01798e378154317316d20cb2fe082c8bec798666c67acd74a0b8d5d584dcb0a265410bb64e8e5333b5495229747d8cb11199372e6c55430493e9973eea

6356a88aebad540231a9315d1bb5ed1eac09c61dfa00f459a0dd3f917278880c9fb8f5c667587a615d376c70529ba47b752e99b234a74ebf69794ed4fbb7cf8b
ecdf414ddd1c731b27ee178f8dad012699fe8a09a0643c353d1b2e82d848efe1dcb0a265410bb64e8e5333b5495229747d8cb11199372e6c55430493e9973eea
d7f00cffdaa0572c0deaddad0a326aa5a7612a9c4b039af97f1c3be89ad8ad38ae40da861fe4e23ca7e171eb2c65cd7f1878af0e26e3776242956c81e1d6f0c8
82100bca9fe9736d801f86688a3922d0c02983a7d3a5d4426a1e72bbf74ffd8d86407cf32a54c8037eb13801c606eea4864ccb5deac6bae0ab0c1757df738133
c6ecbef87124c43b09d55ae6fb1fc120b935388d632e3a0fc3591495e80ae6d1061423705f4182eb9a7a4d308feccfc0c407620dae161b3b8c364481096fa1a6
553d55d94b45bb65a3828361c361b84a911644eeb848080ec7873c457d87c1d9a0546a4dafcaf0c6b022e2da71a5dcc064e7564d4e95235feb20b48c401bbf52

a80eb6ec82b272528a2d5cabc246481ae9bfac8c42520eae0c59f6c831d4b0d95bf2f24ca62f2d869757e48364a78a27de51b6cc02cea2a70269a5995722f1c3
31902dbced0ba5318b42458f67a6c48d26f7d7a7d29451137eb3849f53f043ccf4430ca9748691f23dfd8eb50d4da9b6bfc67b84f76da404fcf7781d6c38c9af
0aa9bc1032f21c1fa82b11ee5e266779a0546a4dafcaf0c6b022e2da71a5dcc002ed2b695f95a1ad7bd5b1b1ccff98ac489434277432f939fb0d6c8b0abd0553
75910bcf7cc3a04e6f1b4a6ebeb1ab14373d8e734743708a050d45f96a686ffb470a8ab8d1f1637a344086e59ea2c3a621139b1275ff0c8a4a60e28b98c02ae8
af6ff6c94776c609d77ecd2122f98baf26f7d7a7d29451137eb3849f53f043ccf4430ca9748691f23dfd8eb50d4da9b6bfc67b84f76da404fcf7781d6c38c9af
135d74f335718c5c54a312fc9dc7070adf66facbd373ec7868364c105a2b0a58f8957f38790633d4ea9f3c46f16c032a21855124a02508e31bd1e01e137d72c7
2ab22bdd7151a4c4661647ea6f340782c02983a7d3a5d4426a1e72bbf74ffd8d86407cf32a54c8037eb13801c606eea4864ccb5deac6bae0ab0c1757df738133
eb4096678382ff5181736724d0baaefa768bb8a91355a46b72da1690ded7227b12bed3ef1ed52376038485f9aa993305877240c434324815353c966d1d7b4d56
b3b17f06659b784c86da021524eb09ec26ba1a09fe69cace50980926db26a3a67b686d92cc4a235b22ca6cfb05c020e7c6b2cb4d9221a0373b668c715706fec4
30dd9b405ae472a235675b73183269a01a73c247646b8635357d1095eff7fe9a687d2061bbb50591c766c75089753c26be5720b46337099e3c9c86f92de332ab
3cba3cc425c2411547c1ba410bf6e4ed1a73c247646b8635357d1095eff7fe9a687d2061bbb50591c766c75089753c26be5720b46337099e3c9c86f92de332ab

c30c6a2b39ee434fa9c42731bf3558461b4a30aeaa5a16d6f51a1d7f7d811f57428c0e987cf7f62a8ebb3f945bc5f4e1f83bb9e28a7a9eb7c10f031c5ee04fc0
ab02f8fa9c602dce321d2e8e861a23c6e65307dca929f016273bafcc9949cba67f2d544b97c430c3ad86aac816bcb10a5ac91e1f72c9a89bc006a923eaf8ff92
9d6ee12c8300affaef72aa7ecb0b56be6f0de77a76185aeec20ced150f1de09ef3e5fa66ddecf9fdef34f27ccbac8848d8c8a7a8824cd7d73549dc3e03008501
739c042c7b40f8e1c13b85f90605c97c26ba1a09fe69cace50980926db26a3a67b686d92cc4a235b22ca6cfb05c020e7c6b2cb4d9221a0373b668c715706fec4
1896d9dce4cb8a546104c39b54982bc32e89cc432f60728e1b68ad164fd41d25162a7acd53f3f2612dd50d97617e43a7a619b0e02dcbee4407c297ad4a2950ad
$CDNENCFINISH_ADV2
.ends
